112
 energy: -203.344587321668 gnorm: 0.001144248108 xtb: 6.6.0 (conda-forge)
C            0.54047999683900       -4.32558999983335        2.05439000009302
C           -0.23260000017143       -3.91707999978528        0.85114999930884
C           -0.25832000051586       -2.63489000006721        0.32529999953440
C           -1.08094999964074       -2.40609999919475       -0.87387000130078
O           -1.11320000081501       -1.24931000007199       -1.36299000057541
C           -1.79194999893827       -3.52899999958311       -1.40716000193612
C           -1.69058999865075       -4.74162000009454       -0.80158000147049
O           -0.94739000220745       -4.95220999945794        0.28550999723834
O            0.38524999933325       -1.63101999954093        0.80523999964975
H           -0.11350000040082       -4.72168999998178        2.84423000051494
H            1.28091999995985       -5.10395999907983        1.82042999979014
H            1.06208999991096       -3.44533999970161        2.43659999993096
H           -2.40945999875430       -3.40694000021008       -2.28956999784649
H           -2.19257999968769       -5.64383999971457       -1.13055000052566
Fe           0.00083000015752        0.00123000003558       -0.27931000002788
C            3.47975000003576        2.62703999940264        2.05762999593656
C            3.51174000064185        1.75586000070900        0.85250000114013
C            2.41378999997850        1.09386000066929        0.32570000062814
C            2.62629000075441        0.26918000082213       -0.87505999847452
O            1.64036000159094       -0.33653000031444       -1.36449999904016
C            3.95390999988688        0.21613000052855       -1.40935000453215
C            4.95376999894427        0.90898000313441       -0.80290999540948
O            4.76525000006378        1.65553999990499        0.28594999860798
O            1.22280000024587        1.14870000036678        0.80615999998368
H            4.15404000044107        2.25981000035625        2.84408000186207
H            3.77856000021719        3.65902000050188        1.82492000009467
H            2.45811000024181        2.63398999999944        2.44348000021604
H            4.15642999989895       -0.37783999978505       -2.29311000075769
H            5.98592000069186        0.92607000004591       -1.13246000017247
C           -4.01606999999055        1.69283999983659        2.05767000072395
C           -3.27795999883599        2.15841000019317        0.85321000276669
C           -2.15385000021766        1.54140999960229        0.32696999955481
C           -1.54669000004109        2.13946000054085       -0.87333000068956
O           -0.52770999964897        1.59089999961975       -1.36248000016158
C           -2.16704999911019        3.31445999978495       -1.40764000023499
C           -3.26881000012642        3.83096000075282       -0.80196000079914
O           -3.82046000002180        3.29278999900235        0.28641999879740
O           -1.60360999979986        0.48375999976922        0.80756000009705
H           -4.03998999990075        2.46116999973827        2.84330000074592
H           -5.05772999928903        1.43033999981908        1.82369000045068
H           -3.50762999917397        0.80726999972685        2.44503000023343
H           -1.75454999994645        3.78805000027309       -2.29105000006763
H           -3.80174000004619        4.71498999998226       -1.13175000049460
O            2.19815095721153        0.66701127444489        7.43637862250448
H            1.97085530459528        0.53943374389733        6.50960162946487
H            1.58440096995329        0.13179306543917        7.94873374746055
O           -2.29545001672699       -2.08462584892371        6.57806773858152
H           -2.10108867978803       -3.02527700665554        6.63089165946169
H           -1.98768035363169       -1.78579537269091        5.71546670211476
O            1.36565234489975        6.14602456688166        5.99440561300814
H            1.34341002102129        5.19628833241241        6.14963761815528
H            1.87211930612521        6.28527049401238        5.18818617837097
O            3.08746165619553       -4.69023960026797        7.10717068393344
H            2.61970922616555       -5.24853289324411        6.47781188497964
H            3.44676488264142       -3.94897104978533        6.60770969469253
O           -7.47599958727305        0.09162072078921        6.41408138198084
H           -6.59941438437908       -0.23603093643073        6.64004321743082
H           -7.35737569761329        0.76799500423918        5.73960227596642
O            6.78021910741071        2.72390488305072        5.42989815240760
H            6.81508027206037        3.68419450139174        5.48309071800964
H            6.33160568506105        2.41433842668735        6.22336227500887
O           -2.09502400528677       -6.68976555452321        3.74391435839746
H           -1.77989209765419       -7.26970477430663        3.04436348862637
H           -3.01606151265815       -6.49059167314601        3.54679808510831
O           -3.49973397659780        7.22430732648710        3.92897765252735
H           -3.04080090899256        7.25955747605638        4.77425120595989
H           -2.86517027602818        6.90521960266920        3.27935235081303
O            6.36962244267996       -2.52087908482919        3.05209032655379
H            6.49758507478721       -1.61975601163792        3.36478522673033
H            5.50929528216048       -2.54473840076708        2.62018581624539
O           -6.46594676852495       -3.52006925467294        2.06899400015044
H           -5.67844904761098       -3.18296487724570        1.62942279402376
H           -6.72128527114336       -2.86293716053891        2.72416485844636
O            3.53069102461862        7.94648610152814        0.98611341956637
H            3.90004869961246        7.80047504946902        0.10953451135314
H            2.57309326982932        7.95413817216343        0.88781494240374
O            3.20217747722768       -7.18694908152543        2.14569354542348
H            4.12193253537801       -6.95660859134534        2.31161413472523
H            3.20217467573883       -7.89155882674316        1.49085480579810
O           -6.66876648352941        3.77602422931743        1.02973536603958
H           -5.74235989577998        3.61748796944738        0.79903708567254
H           -6.68739042266713        4.60849398038285        1.51255519181134
O            8.50146672723827        0.73095865778324       -0.77002403211817
H            8.80064793449673       -0.11620993611399       -0.42437692328684
H            8.92485695628073        1.41410134741560       -0.24015711387694
O           -4.17621644056568       -7.08988049725543       -1.68079818199043
H           -4.43744611518658       -7.22494870688254       -2.59717540524636
H           -4.97437586486282       -6.86552036763818       -1.19157261665321
O           -0.38256010204720        9.20309674040698       -2.60604730998567
H            0.31361369128145        9.20316927699361       -3.27059955986505
H           -0.67024353035183        8.29042466014562       -2.50261525393324
O            4.59653546405372       -5.25289159129767       -2.10491609122488
H            5.18391783574202       -4.69016761139559       -1.59048101219465
H            3.71904841194796       -4.86074390702940       -2.04802696131412
O           -6.33590957496630        0.05706852840871       -3.27702891605106
H           -5.42512183900319       -0.16630104623915       -3.05835634012064
H           -6.68014014316743        0.56955949309864       -2.53902010560992
O            2.85752038122002        5.30987233754362       -3.81636577761793
H            2.95037060283660        4.77207597606633       -4.60872403016287
H            2.56538345986373        4.71884462778510       -3.11443754455821
O            0.10268915406848       -5.10441140058231       -6.35373707963864
H            0.59097152063659       -5.04012837037443       -5.52659586239966
H           -0.38836561708677       -4.28165790290365       -6.44624606297500
O           -2.80145536806478        2.60948858230214       -7.00697124607214
H           -2.01213190047924        2.25896216706071       -6.58139464669013
H           -3.53913116033750        2.41898773620227       -6.41886745655512
O            3.25188964718201        1.02487038036544       -7.60432698111289
H            3.55116761253516        0.67944127080980       -6.75712706614109
H            2.31050750814483        0.83257768954752       -7.66287859720866
O            0.20041541914018       -0.59784937030198       -3.73933193646255
H            0.90301899903410       -0.43456369587365       -3.08889877959381
H           -0.55354063627166       -0.70668106843345       -3.14004727437555
