109
Cr_2_B3LYP.log	Energy: -2381934.7174367
Cr         0.15682       -0.03686       -0.09095
O          1.45839        0.65271        1.39347
H          2.33665        1.02737        1.23310
O          0.99978       -1.94903        0.05820
H          0.74648       -2.72630       -0.45905
O         -1.48539       -0.63485        1.52404
H         -2.18584       -0.07169        1.88268
O         -1.14476       -0.72643       -1.57536
H         -0.98472       -0.73035       -2.53012
O         -0.68615        1.87531       -0.24009
H         -0.43285        2.65258        0.27716
O          1.79902        0.56112       -1.70594
H          2.49947       -0.00203       -2.06458
H          1.87960        1.40408       -2.17425
H          1.71231       -2.21350        0.65671
H          1.29835        0.65663        2.34823
H         -1.39868        2.13978       -0.83861
H         -1.56597       -1.47780        1.99236
H         -2.02302       -1.10109       -1.41499
O         -3.37282       -1.76391       -2.28388
H         -4.04443       -2.01766       -1.74115
H         -3.49656       -0.90462       -2.52116
O          0.81375       -2.25135       -3.95288
H          0.14214       -2.50509       -3.41015
H          0.69001       -1.39205       -4.19015
O         -2.93875        2.41990       -2.24311
H         -3.61036        2.16616       -1.70038
H         -3.06249        3.27920       -2.48038
O         -1.38867       -4.25619        0.15135
H         -2.06027       -4.50994        0.69408
H         -1.51240       -3.39690       -0.08592
O          2.45655        1.53273       -3.62614
H          1.78495        1.27899       -3.08341
H          2.33282        2.39203       -3.86341
O         -3.83400        0.98225        1.72145
H         -4.50561        0.72851        2.26418
H         -3.95774        1.84155        1.48417
O          2.96688       -3.55031       -0.18673
H          2.29527       -3.80406        0.35600
H          2.84314       -2.69102       -0.42400
O          0.69622        4.39124       -0.68339
H          0.02461        4.13750       -0.14066
H          0.57248        5.25053       -0.92067
O         -1.15164       -1.84645        3.81588
H         -1.82325       -2.10019        4.35861
H         -1.27538       -0.98716        3.57861
O          4.63122        0.41917        0.05662
H          3.95961        0.16542        0.59935
H          4.50748        1.27846       -0.18065
O         -0.07949        3.06622        3.15945
H         -0.75110        2.81248        3.70218
H         -0.20323        3.92551        2.92217
O          2.63319       -0.53481        3.63324
H          1.96158       -0.78855        4.17597
H          2.50945        0.32449        3.39597
O         -4.89104       -2.37447       -3.57793
H         -5.56265       -2.62821       -3.03520
H         -5.01478       -1.51517       -3.81521
O          0.03979       -3.02678       -5.71727
H         -0.63182       -3.28053       -5.17454
H         -0.08395       -2.16749       -5.95455
O         -4.62610        2.63189       -3.80037
H         -5.29771        2.37814       -3.25765
H         -4.74984        3.49118       -4.03765
O         -2.84095       -5.74061       -0.96630
H         -3.51255       -5.99435       -0.42357
H         -2.96468       -4.88132       -1.20358
O          1.97717        1.53997       -5.98339
H          1.30556        1.28623       -5.44066
H          1.85343        2.39927       -6.22066
O         -6.44549        0.80489        0.82106
H         -7.11710        0.55115        1.36379
H         -6.56923        1.66418        0.58378
O          2.63718       -5.53725       -1.97149
H          1.96557       -5.79099       -1.42876
H          2.51344       -4.67795       -2.20877
O         -0.69989        5.74716       -3.03568
H         -1.37150        5.49342       -2.49295
H         -0.82363        6.60646       -3.27296
O         -3.88611       -3.81401        3.55909
H         -4.55772       -4.06775        4.10182
H         -4.00985       -2.95471        3.32181
O          5.62327       -0.41852       -3.14304
H          4.95166       -0.67227       -2.60031
H          5.49953        0.44077       -3.38032
O         -3.82950        4.89624        2.09694
H         -4.50111        4.64250        2.63967
H         -3.95324        5.75554        1.85966
O          1.91901       -5.38729        2.99699
H          1.24740       -5.64103        3.53972
H          1.79527       -4.52799        2.75972
O          3.95756        4.99237       -1.31845
H          3.28595        4.73862       -0.77572
H          3.83382        5.85166       -1.55572
O         -2.90670        0.55785        5.82291
H         -3.57831        0.30411        6.36564
H         -3.03044        1.41715        5.58563
O          5.96701       -1.78899        1.68262
H          5.29540       -2.04273        2.22535
H          5.84327       -0.92969        1.44534
O          1.08556        5.66414        3.07541
H          0.41395        5.41040        3.61814
H          0.96182        6.52343        2.83814
O          1.71283       -1.24245        6.13666
H          1.04122       -1.49619        6.67939
H          1.58909       -0.38315        5.89938
O          4.84275        2.38036        3.60797
H          4.17114        2.12662        4.15070
H          4.71901        3.23966        3.37069
