109
Cr_3_B3LYP.log	Energy: -2381849.1365093
Cr         0.15395       -0.01334       -0.10164
O         -0.68079        1.79366       -0.34652
H         -0.20283        2.64150       -0.41503
O         -1.66708       -0.85371       -0.09749
H         -2.14819       -1.18376       -0.87955
O          0.25385       -0.23720       -2.09206
H          0.60606       -1.01467       -2.56444
O          0.98878       -1.82038        0.14319
H          1.94445       -2.00582        0.20917
O          1.97473        0.82743       -0.10553
H          2.45574        1.15682        0.67687
O          0.05478        0.21016        1.88890
H         -0.30413        0.98455        2.36167
H          0.35741       -0.43649        2.55392
H         -2.22642       -1.00490        0.68759
H         -1.63606        1.97849       -0.41915
H          2.53444        0.97862       -0.89032
H         -0.04314        0.41149       -2.75759
H          0.51064       -2.66763        0.21771
O         -3.15511       -2.44797       -1.93810
H         -3.72991       -2.78704       -1.33425
H         -3.44768       -1.63759       -2.19826
O          0.92143       -2.27796       -3.91381
H          0.34663       -2.61703       -3.30996
H          0.62886       -1.46758       -4.17398
O         -3.47748        1.74317       -2.09575
H         -4.05227        1.40410       -1.49190
H         -3.77004        2.55355       -2.35592
O         -0.58760       -4.42023        0.42765
H         -1.16240       -4.75931        1.03150
H         -0.88017       -3.60985        0.16748
O          1.87715        1.74811       -3.86693
H          1.30235        1.40903       -3.26308
H          1.58459        2.55849       -4.12710
O         -3.81572        0.38120        1.98060
H         -4.39051        0.04213        2.58445
H         -4.10828        1.19158        1.72043
O          3.53517       -2.97739       -0.28252
H          2.96037       -3.31646        0.32134
H          3.24260       -2.16701       -0.54268
O         -0.15390        4.40302       -0.90791
H         -0.72870        4.06395       -0.30406
H         -0.44647        5.21340       -1.16807
O         -0.52698       -1.81679        3.96462
H         -1.10178       -2.15586        4.56848
H         -0.81955       -1.00641        3.70446
O          4.47281        1.23032       -0.32766
H          3.89800        0.89124        0.27619
H          4.18024        2.04070       -0.58783
O         -0.40373        3.16640        3.03330
H         -0.97853        2.82733        3.63715
H         -0.69630        3.97678        2.77314
O          2.93812        0.12921        3.43088
H          2.36332       -0.20986        4.03473
H          2.64555        0.93959        3.17072
O         -4.62720       -3.38356       -3.08263
H         -5.20200       -3.72263       -2.47878
H         -4.91976       -2.57318       -3.34280
O          0.17573       -3.26938       -5.57948
H         -0.39907       -3.60845       -4.97563
H         -0.11683       -2.45900       -5.83964
O         -5.28191        1.57247       -3.52125
H         -5.85671        1.23340       -2.91740
H         -5.57448        2.38285       -3.78142
O         -1.82554       -6.19391       -0.51221
H         -2.40034       -6.53299        0.09164
H         -2.11811       -5.38353       -0.77237
O          1.23780        1.54667       -6.17715
H          0.66300        1.20760       -5.57330
H          0.94523        2.35705       -6.43732
O         -6.41025       -0.30031        1.29801
H         -6.98505       -0.63938        1.90186
H         -6.70282        0.51007        1.03784
O          3.44144       -5.08253       -1.95630
H          2.86664       -5.42160       -1.35245
H          3.14887       -4.27215       -2.21647
O         -1.93452        5.36618       -3.19322
H         -2.50932        5.02710       -2.58937
H         -2.22709        6.17656       -3.45339
O         -2.87499       -4.24577        4.00295
H         -3.44979       -4.58484        4.60680
H         -3.16756       -3.43539        3.74279
O          5.36895        0.41302       -3.56073
H          4.79415        0.07395       -2.95688
H          5.07638        1.22340       -3.82089
O         -4.48730        4.24911        2.20101
H         -5.06210        3.91004        2.80486
H         -4.77987        5.05949        1.94085
O          3.06332       -4.79988        3.04382
H          2.48852       -5.13895        3.64767
H          2.77075       -3.98949        2.78365
O          2.89294        5.53462       -1.82292
H          2.31814        5.19555       -1.21907
H          2.60037        6.34500       -2.08308
O         -2.53789        0.34330        6.00897
H         -3.11268        0.00423        6.61282
H         -2.83045        1.15368        5.74880
O          6.29558       -0.61943        1.27236
H          5.72078       -0.95850        1.87621
H          6.00301        0.19095        1.01219
O          0.26698        5.92076        2.75539
H         -0.30782        5.58169        3.35925
H         -0.02559        6.73114        2.49523
O          2.34022       -0.59655        6.02524
H          1.76542       -0.93562        6.62909
H          2.04765        0.21383        5.76508
O          4.58089        3.38240        3.11616
H          4.00609        3.04333        3.72001
H          4.28832        4.19279        2.85600
