109
Mn_2_B3LYP.log	Energy: -2448780.1099008
Mn         0.15378       -0.01318       -0.10109
O         -0.70754        1.73995       -1.09787
H         -0.74715        1.89832       -2.05155
O          2.10012        0.99300       -0.01541
H          2.91744        0.63528        0.35914
O         -0.37137        0.83622        1.85092
H         -1.19986        0.70312        2.33252
O          1.01654       -1.76710        0.89290
H          1.42512       -2.53075        0.46093
O         -1.79366       -1.01776       -0.18494
H         -2.60996       -0.66092       -0.56282
O          0.67814       -0.86393       -2.05300
H          1.50621       -0.73099       -2.53540
H          0.12580       -1.44409       -2.59562
H          2.30530        1.87907       -0.34544
H         -1.12023        2.50228       -0.66812
H         -2.00019       -1.90240        0.14864
H          0.18063        1.41591        2.39435
H          1.05941       -1.92594        1.84645
O         -3.15472       -2.44853       -1.93844
H         -3.72953       -2.78776       -1.33469
H         -3.44742       -1.63820       -2.19861
O          0.92207       -2.27754       -3.91355
H          0.34726       -2.61677       -3.30980
H          0.62937       -1.46721       -4.17372
O         -3.47797        1.74254       -2.09594
H         -4.05278        1.40332       -1.49219
H         -3.77068        2.55287       -2.35611
O         -0.58712       -4.42035        0.42759
H         -1.16194       -4.75958        1.03134
H         -0.87983       -3.61002        0.16742
O          1.87692        1.74873       -3.86634
H          1.30211        1.40950       -3.26259
H          1.58421        2.55905       -4.12651
O         -3.81651        0.38031        1.98029
H         -4.39132        0.04108        2.58405
H         -4.10922        1.19064        1.72012
O          3.53543       -2.97658       -0.28190
H          2.96062       -3.31581        0.32185
H          3.24273       -2.16625       -0.54207
O         -0.15515        4.40306       -0.90749
H         -0.72996        4.06383       -0.30374
H         -0.44786        5.21339       -1.16766
O         -0.52758       -1.81706        3.96470
H         -1.10240       -2.15629        4.56845
H         -0.82029       -1.00673        3.70453
O          4.47216        1.23133       -0.32672
H          3.89735        0.89211        0.27703
H          4.17946        2.04166       -0.58689
O         -0.40528        3.16620        3.03363
H         -0.98010        2.82697        3.63738
H         -0.69799        3.97653        2.77346
O          2.93716        0.12972        3.43156
H          2.36235       -0.20951        4.03531
H          2.64446        0.94005        3.17139
O         -4.62643       -3.38440       -3.08324
H         -5.20124       -3.72362       -2.47948
H         -4.91914       -2.57407       -3.34341
O          0.17684       -3.26905       -5.57937
H         -0.39797       -3.60827       -4.97562
H         -0.11587       -2.45872       -5.83954
O         -5.28216        1.57151       -3.52172
H         -5.85697        1.23229       -2.91797
H         -5.57486        2.38184       -3.78189
O         -1.82454       -6.19426       -0.51253
H         -2.39936       -6.53348        0.09122
H         -2.11725       -5.38393       -0.77270
O          1.23795        1.54726       -6.17666
H          0.66313        1.20804       -5.57291
H          0.94524        2.35759       -6.43683
O         -6.41080       -0.30174        1.29729
H         -6.98561       -0.64096        1.90104
H         -6.70350        0.50859        1.03712
O          3.44241       -5.08166       -1.95581
H          2.86759       -5.42089       -1.35206
H          3.14970       -4.27133       -2.21597
O         -1.93564        5.36593       -3.19302
H         -2.51045        5.02671       -2.58927
H         -2.22835        6.17626       -3.45319
O         -2.87507       -4.24655        4.00257
H         -3.44989       -4.58578        4.60632
H         -3.16778       -3.43622        3.74240
O          5.36896        0.41438       -3.55969
H          4.79415        0.07516       -2.95594
H          5.07626        1.22471       -3.81986
O         -4.48896        4.24806        2.20079
H         -5.06378        3.90883        2.80454
H         -4.78167        5.05839        1.94062
O          3.06350       -4.79933        3.04427
H          2.48868       -5.13855        3.64802
H          2.77079       -3.98900        2.78410
O          2.89158        5.53536       -1.82200
H          2.31677        5.19614       -1.21824
H          2.59887        6.34569       -2.08216
O         -2.53926        0.34249        6.00885
H         -3.11408        0.00327        6.61260
H         -2.83197        1.15282        5.74868
O          6.29510       -0.61809        1.27349
H          5.72029       -0.95732        1.87724
H          6.00240        0.19224        1.01332
O          0.26486        5.92072        2.75595
H         -0.30995        5.58149        3.35970
H         -0.02784        6.73105        2.49578
O          2.33905       -0.59630        6.02579
H          1.76423       -0.93552        6.62954
H          2.04634        0.21403        5.76562
O          4.57928        3.38328        3.11723
H          4.00446        3.04406        3.72098
H          4.28657        4.19361        2.85706
