109
Ti_2_B3LYP.log	Energy: -2259612.3012459
Ti         0.15783        0.00236       -0.09832
O          1.81403       -0.92151        1.04157
H          2.70496       -0.56592        1.16809
O         -0.93209       -1.91524        0.07583
H         -1.70927       -2.08458        0.62714
O         -0.85273        0.65874        1.75727
H         -1.55184        1.32461        1.82421
O         -1.49838        0.92616       -1.23822
H         -1.44836        1.73455       -1.76797
O          1.24774        1.91996       -0.27241
H          2.02495        2.08931       -0.82367
O          1.16843       -0.65402       -1.95388
H          1.86753       -1.31989       -2.02077
H          0.95444       -0.38963       -2.85970
H         -0.77421       -2.72428       -0.43087
H          1.76398       -1.72994        1.57124
H          1.08979        2.72903        0.23423
H         -0.63870        0.39434        2.66308
H         -2.38932        0.57055       -1.36467
O         -2.89002       -2.64566       -2.08543
H         -3.44882       -3.04841       -1.50618
H         -3.24313       -1.85533       -2.33182
O          1.20456       -2.08103       -3.94718
H          0.64577       -2.48379       -3.36793
H          0.85146       -1.29071       -4.19357
O         -3.55879        1.50693       -2.14108
H         -4.11759        1.10418       -1.56183
H         -3.91190        2.29726       -2.38746
O         -0.22422       -4.46414        0.29476
H         -0.78302       -4.86690        0.87401
H         -0.57733       -3.67382        0.04838
O          1.81789        2.00759       -3.76889
H          1.25909        1.60483       -3.18964
H          1.46478        2.79791       -4.01528
O         -3.88028        0.00603        1.88756
H         -4.43907       -0.39672        2.46681
H         -4.23338        0.79636        1.64118
O          3.77902       -2.66380       -0.26755
H          3.22022       -3.06656        0.31170
H          3.42591       -1.87348       -0.51393
O         -0.49973        4.39906       -0.79583
H         -1.05853        3.99630       -0.21658
H         -0.85284        5.18938       -1.04222
O         -0.46783       -1.96646        3.89949
H         -1.02663       -2.36921        4.47874
H         -0.82094       -1.17613        3.65310
O          4.36132        1.60688       -0.17691
H          3.80252        1.20412        0.40233
H          4.00821        2.39720       -0.42330
O         -0.74038        3.03422        3.10341
H         -1.29918        2.63146        3.68266
H         -1.09348        3.82454        2.85703
O          2.83378        0.27538        3.50929
H          2.27498       -0.12738        4.08854
H          2.48067        1.06570        3.26291
O         -4.25030       -3.66746       -3.29286
H         -4.80910       -4.07022       -2.71361
H         -4.60341       -2.87714       -3.53925
O          0.58521       -3.08320       -5.65759
H          0.02641       -3.48595       -5.07834
H          0.23210       -2.29287       -5.90398
O         -5.30750        1.22743       -3.61793
H         -5.86629        0.82467       -3.03868
H         -5.66060        2.01775       -3.86432
O         -1.28593       -6.30714       -0.72400
H         -1.84473       -6.70990       -0.14475
H         -1.63904       -5.51682       -0.97039
O          1.25383        1.81955       -6.09976
H          0.69503        1.41680       -5.52051
H          0.90072        2.60988       -6.34615
O         -6.39122       -0.86917        1.11868
H         -6.95002       -1.27193        1.69793
H         -6.74433       -0.07885        0.87230
O          3.90273       -4.72093       -1.99813
H          3.34393       -5.12368       -1.41888
H          3.54962       -3.93060       -2.24452
O         -2.29896        5.27548       -3.10138
H         -2.85776        4.87273       -2.52213
H         -2.65207        6.06581       -3.34777
O         -2.60412       -4.58239        3.81151
H         -3.16292       -4.98514        4.39076
H         -2.95723       -3.79206        3.56513
O          5.40090        0.95934       -3.40549
H          4.84210        0.55658       -2.82624
H          5.04779        1.74966       -3.65188
O         -4.87899        3.79684        2.19195
H         -5.43779        3.39409        2.77120
H         -5.23210        4.58716        1.94556
O          3.38123       -4.61320        2.99592
H          2.82243       -5.01595        3.57517
H          3.02812       -3.82287        2.74953
O          2.46275        5.80572       -1.59958
H          1.90395        5.40296       -1.02033
H          2.10964        6.59604       -1.84597
O         -2.70173       -0.04017        5.94600
H         -3.26053       -0.44293        6.52525
H         -3.05484        0.75015        5.69961
O          6.29349       -0.12968        1.42158
H          5.73469       -0.53244        2.00083
H          5.94038        0.66064        1.17519
O         -0.29648        5.84161        2.91607
H         -0.85528        5.43885        3.49532
H         -0.64958        6.63193        2.66968
O          2.23618       -0.57117        6.06686
H          1.67738       -0.97393        6.64611
H          1.88308        0.21915        5.82047
O          4.20510        3.66155        3.32409
H          3.64630        3.25880        3.90334
H          3.85199        4.45188        3.07770
