109
Ti_3_B3LYP.log	Energy: -2259513.7501371
Ti         0.15676       -0.00470       -0.09984
O         -1.81528       -0.68309        0.02860
H         -2.27026       -0.99073        0.83625
O          0.76313       -1.77499       -1.02885
H          1.68048       -2.09938       -1.11359
O         -0.21552        0.89997       -1.94603
H         -0.31239        1.85747       -2.11266
O          2.12812        0.67524       -0.22829
H          2.78811        0.72217        0.48984
O         -0.45172        1.76465        0.82923
H          0.11517        2.44793        1.23577
O          0.53135       -0.91075        1.74508
H          0.62827       -1.86847        1.91038
H          0.61439       -0.47497        2.61497
H          0.19488       -2.45713       -1.43535
H         -2.47525       -0.72942       -0.68956
H         -1.36976        2.08717        0.91399
H         -0.29679        0.46311       -2.81553
H          2.58279        0.98318       -1.03599
O         -3.01189       -2.55964       -2.01934
H         -3.57882       -2.93367       -1.42884
H         -3.33765       -1.75959       -2.27192
O          1.07942       -2.17406       -3.93325
H          0.51248       -2.54809       -3.34275
H          0.75365       -1.37401       -4.18584
O         -3.52365        1.61435       -2.12083
H         -4.09058        1.24032       -1.53033
H         -3.84942        2.41440       -2.37342
O         -0.38958       -4.44842        0.35441
H         -0.95651       -4.82245        0.94491
H         -0.71534       -3.64837        0.10183
O          1.84902        1.89022       -3.81418
H          1.28209        1.51619       -3.22368
H          1.52326        2.69027       -4.06676
O         -3.85528        0.17678        1.93003
H         -4.42221       -0.19725        2.52052
H         -4.18105        0.97683        1.67744
O          3.67218       -2.80854       -0.27509
H          3.10524       -3.18257        0.31541
H          3.34641       -2.00849       -0.52767
O         -0.34206        4.40465       -0.84662
H         -0.90899        4.03062       -0.25612
H         -0.66782        5.20470       -1.09921
O         -0.49698       -1.89881        3.92929
H         -1.06391       -2.27284        4.51978
H         -0.82274       -1.09876        3.67670
O          4.41666        1.43774       -0.24565
H          3.84973        1.06371        0.34485
H          4.09090        2.23779       -0.49823
O         -0.58926        3.09836        3.07222
H         -1.15619        2.72433        3.66272
H         -0.91502        3.89841        2.81963
O          2.88238        0.21100        3.47396
H          2.31545       -0.16303        4.06446
H          2.55662        1.01105        3.22138
O         -4.42367       -3.54393       -3.19848
H         -4.99061       -3.91796       -2.60798
H         -4.74944       -2.74388       -3.45106
O          0.40292       -3.17309       -5.62373
H         -0.16401       -3.54712       -5.03323
H          0.07716       -2.37304       -5.87631
O         -5.29857        1.38318       -3.57459
H         -5.86550        1.00915       -2.98409
H         -5.62433        2.18323       -3.82717
O         -1.53193       -6.26225       -0.62886
H         -2.09886       -6.63628       -0.03837
H         -1.85769       -5.46220       -0.88145
O          1.25145        1.69487       -6.13608
H          0.68451        1.32084       -5.54558
H          0.92568        2.49492       -6.38866
O         -6.40624       -0.61188        1.20019
H         -6.97317       -0.98591        1.79069
H         -6.73200        0.18817        0.94760
O          3.69802       -4.89016       -1.98041
H          3.13109       -5.26420       -1.38992
H          3.37226       -4.09012       -2.23300
O         -2.13327        5.32014       -3.14322
H         -2.70020        4.94611       -2.55272
H         -2.45903        6.12019       -3.39581
O         -2.73159       -4.43260        3.89844
H         -3.29852       -4.80663        4.48894
H         -3.05735       -3.63255        3.64586
O          5.39375        0.71122       -3.47693
H          4.82682        0.33719       -2.88644
H          5.06799        1.51127       -3.72952
O         -4.70627        4.00627        2.19679
H         -5.27320        3.63224        2.78729
H         -5.03203        4.80632        1.94420
O          3.23852       -4.70082        3.01729
H          2.67158       -5.07486        3.60779
H          2.91275       -3.90077        2.76471
O          2.66208        5.68770       -1.70099
H          2.09514        5.31367       -1.11049
H          2.33631        6.48775       -1.95357
O         -2.63267        0.13615        5.97546
H         -3.19960       -0.23788        6.56596
H         -2.95843        0.93620        5.72288
O          6.30002       -0.35101        1.35356
H          5.73309       -0.72505        1.94406
H          5.97426        0.44904        1.10097
O         -0.04163        5.88433        2.84401
H         -0.60856        5.51030        3.43451
H         -0.36739        6.68438        2.59143
O          2.28267       -0.58048        6.04861
H          1.71574       -0.95451        6.63911
H          1.95691        0.21957        5.79603
O          4.37863        3.54010        3.23023
H          3.81169        3.16607        3.82073
H          4.05286        4.34015        2.97765
