129
 energy: -231.752173869038 gnorm: 0.000046787310 xtb: 6.6.0 (conda-forge)
Fe          -0.29377308217613        0.02330498899345       -0.53628036979571
O            0.36321605394807        2.46166998085184       -0.56942247779302
S            0.20737468517376        3.78546870823815       -0.03076432397564
O           -1.01912073614956        4.42915512933003       -0.56414776287292
O            0.09505834435435        3.75486223788453        1.44358638095398
O            1.34946935242375        4.64646228970074       -0.39714455765693
O            1.76062957958527        0.27948423326181        0.89328132015665
H            1.34901773403003        0.07675588782584        1.75988686521390
H            2.01854169380618        1.21022027488053        0.87660267978865
O            0.03885226928923       -2.07584895001762        0.73702918934002
H            0.18250943253423       -1.78053608726970        1.65111685206874
H            0.92909789590445       -2.25485957153475        0.36786547929405
O           -2.57023038735070       -0.64477779780891        0.06285542496932
H           -2.80361121827122       -1.51404341655958       -0.32718539653991
H           -3.32009819891994       -0.05832641125501       -0.07583397515043
O           -1.03119410457455        1.28376462859418        1.50470698529888
H           -0.56048504802460        2.12095053477931        1.54222136323369
H           -1.15191394947755        0.95670595704968        2.42326281421465
O           -0.81846597753551       -1.77956003622156       -2.21104072003349
H           -0.85206599192602       -1.43665414402465       -3.11282921682534
H           -0.18615528800158       -2.52245725742804       -2.21013934796435
O            0.78394362804373        6.77029808980789        1.07420562717707
H            1.00146176392043        5.98931360859062        0.52838862366928
H            1.51154033187077        7.40719521036621        0.93288193602558
O           -2.31472259971712        4.32687818899348        2.46263804762893
H           -1.43485250852045        4.10468852230408        2.10211710434683
H           -2.52940266682881        5.18197105949251        2.06283779827471
O           -0.17089924705872        3.68490228355473       -2.97162083114534
H           -0.36235692389815        3.98414923877188       -2.07066790803357
H           -0.66685146233515        4.26420894347486       -3.58119087515460
O            2.82673378829832        2.82259335032875        0.88640566133480
H            2.86161487143594        3.23006130897644        1.76810202383495
H            2.29400492140583        3.42028720010172        0.34236000431649
O           -1.42882352166094        1.22695858751635       -2.45051837782438
H           -0.82633421968401        1.96934763330186       -2.59474364972724
H           -2.10494384270674        1.57489328062635       -1.83995590542809
O            7.65418819187401        3.52927537733777       -3.62042525250885
H            6.90214412053852        3.18388889218243       -4.11229745964096
H            7.30394036862264        4.24127196257419       -3.06121718265763
O           -1.55420532528408        0.39389737851618        4.01520796214945
H           -2.23576648496798       -0.19720180630912        3.60912141104501
H           -2.02988643716827        1.17415891352383        4.33978094732543
O            1.45691949569857        0.12503898329283       -4.70590688711471
H            1.86739569585905       -0.51722705891851       -5.28937482811319
H            0.48732741496719       -0.01979422696880       -4.75687870183508
O            3.90002951146537       -1.20779263346791        1.39858505958459
H            4.71535104682323       -0.73483441169627        1.18962077511014
H            3.15413820751996       -0.58158222167415        1.19622166004478
O           -3.31553141924419       -0.99938818452262        2.56768130569753
H           -2.81476024304238       -0.89937952684410        1.71473932491526
H           -4.04916451861942       -0.38432995568559        2.46104972028257
O            1.71282779208102       -0.01809855136956       -1.98471042218015
H            1.60326050308293       -0.07113172899612       -2.95219212587368
H            2.02040465771097        0.87768191842955       -1.82221761557679
O            0.71302910833020       -0.85755920929556        3.06617191374249
H            1.47780770364487       -1.16240315001547        3.58388312601081
H            0.05546060434245       -0.46105224071662        3.65052835471329
O           -2.92186477570903       -3.04511886188543       -1.11794548285531
H           -2.32989706538625       -3.65638969949801       -0.63617137617176
H           -2.29635848065573       -2.57735370020780       -1.71396154622906
O            2.36488791038585       -2.31357386777673       -0.61584345798845
H            3.03322858818169       -2.14402086279718        0.06541068503888
H            2.24701300406639       -1.47454107438945       -1.09802757776853
O           -0.86084583368686       -4.43214914899245        0.02096163877391
H           -0.33815738000809       -4.43839778862971       -0.80113767340454
H           -0.62470727557007       -3.55296239686575        0.42177479232564
O            2.91388445520734        8.59701962628480        0.89696236892913
H            3.66642916660756        8.27315759268181        1.40373745293077
H            2.71702930005341        9.48313845938613        1.22022012022779
O           -1.96209558755864        6.54984869742601        0.76748493228886
H           -1.10526564215009        6.91482368443444        1.04326360901848
H           -1.70577967863892        5.79690247978138        0.19721372903299
O           -1.81009210558102        5.42369744917910       -4.43322021207109
H           -1.68592115459003        6.36869550959734       -4.31152351286894
H           -2.75438298664892        5.24467581788132       -4.36618549431609
O            2.09179669539057        4.18632691000203        3.20450522292261
H            1.80949819222691        3.87162441734758        4.07115191984342
H            1.30966314889648        4.13963563539754        2.62412765730053
O           -2.70830842416272        2.31646489372198       -0.35059537550389
H           -2.17945591047564        3.12248764992878       -0.41491071113542
H           -2.31495397968561        1.82913168332002        0.40179296738418
O            6.34627834282931        5.44026241420389       -1.93708600983611
H            6.28754369451131        5.22801759674473       -1.00025570023706
H            5.48108109832007        5.76501681304038       -2.20417038635924
O           -2.85017728442974        2.76397482409905        4.68176552109046
H           -2.63268479053786        3.36199021470314        5.40103996408470
H           -2.76490561070277        3.28420355464944        3.86356698500902
O           -1.19018648390101       -0.35096528567218       -4.59190496747034
H           -1.86265814995892       -0.25083222096236       -5.26731337365976
H           -1.39604280363444        0.28169304666874       -3.86871097129460
O            6.21486642163896        0.27121068805623        0.62866766584610
H            6.66738457124023        0.90807716276152        1.18669932279147
H            6.30155296857722        0.57330788655704       -0.28040822855796
O           -5.28994500546161        0.08468819290902        0.69026270223076
H           -6.19588781338133        0.38580815587433        0.63783414947812
H           -5.30951069648128       -0.89970437606316        0.66363331259103
O            2.34895960775830        2.45395839633102       -3.27943087068423
H            2.08464742860121        1.78355259894495       -3.93402651102902
H            1.54181939457155        2.94601050096071       -3.07965857367120
O            1.58494690517120        1.40750581771072        8.14783194124256
H            2.24610556724975        0.91733064980268        7.64819382778716
H            0.75528242359467        0.92735048878549        8.05804649973894
O           -6.40251117313753       -0.16349034347953       -4.39798524001482
H           -6.19655988239964       -0.93590324367451       -3.85990689022441
H           -6.10558504040034        0.60661463057060       -3.90307855990832
O            5.78135757200378       -3.29064452658950       -4.09774713292988
H            5.84404855965206       -2.35858426085317       -3.86558768991272
H            5.86627555966846       -3.78833308722672       -3.27833167870261
O           -1.41926740023694       -4.83316693453788        6.02560624476797
H           -0.67785932483476       -4.88686124156395        5.41309834876307
H           -2.09872335758073       -4.30900222263592        5.58894858006162
O           -2.38642944582820       -6.10784662931619       -5.39925319043234
H           -2.47682177604340       -6.39933253613683       -4.48591621240587
H           -2.60904881198398       -5.17105428986433       -5.41560764884993
O            3.12933415628523       -1.83423971097283        3.93144819727478
H            3.19415942002243       -2.79095535433142        3.98877651104783
H            3.50061011615993       -1.59914088299888        3.05095622267869
O           -4.92713195649850       -2.60733677717811        0.80246038820513
H           -4.35475347996913       -2.86545724748505        0.05721117155611
H           -4.32260673147580       -2.44212274264319        1.54582499768320
O            0.83980140995197       -3.94934028255471       -2.09033296868078
H            1.31711897350442       -4.42543741440586       -2.77057088216271
H            1.50163337241239       -3.48191552516939       -1.54111846665705
O            1.11253522448497       -6.00859429972325        1.25440994078284
H            0.62200130134822       -6.83151539961801        1.33264992527107
H            0.45946728332070       -5.37349598103430        0.89375518891384
O           -1.79949291888428       -6.91229805592677        0.97609420867505
H           -2.52521311598721       -6.74327559292621        1.58238112615079
H           -1.56507647946460       -6.04585263247029        0.59372295708118
