13
Fe_CN6_minus2_LS.log	Energy: -1142345.5753322
Fe         0.00000        0.00002       -0.00001
C         -0.06605       -1.40589        1.40827
C          1.99877       -0.09527       -0.00145
C         -0.06810       -1.40548       -1.40861
C          0.06608        1.40595       -1.40826
C         -1.99876        0.09530        0.00142
C          0.06806        1.40542        1.40865
N         -0.10561       -2.24731        2.23158
N          3.17505       -0.15128       -0.00231
N         -0.10890       -2.24660       -2.23214
N          0.10569        2.24733       -2.23159
N         -3.17504        0.15130        0.00222
N          0.10880        2.24648        2.23226
