13
Fe_CN6_minus3_HS.log	Energy: -1142495.9485763
Fe        -0.00001       -0.00000       -0.00001
C          1.77421       -0.51909       -1.25113
C          1.35091        0.82811        1.57219
C         -0.09852        2.00683       -0.97237
C         -1.77424        0.51908        1.25109
C         -1.35095       -0.82812       -1.57218
C          0.09857       -2.00682        0.97238
N          2.70537       -0.79150       -1.90767
N          2.05989        1.26272        2.39728
N         -0.15020        3.06004       -1.48266
N         -2.70538        0.79151        1.90767
N         -2.05994       -1.26273       -2.39726
N          0.15032       -3.06002        1.48269
