19
Fe_2_B97D.log	Energy: -1080616.6110738
Fe         0.00005       -0.00003        0.00001
O         -0.29045        1.85715       -0.86395
H          0.21181        2.67084       -0.65326
O         -1.37577        0.47002        1.47155
H         -1.64380       -0.11256        2.21150
O         -1.51779       -0.78129       -1.16861
H         -1.40933       -1.17706       -2.05763
O          0.29018       -1.85749        0.86332
H          0.95399       -2.07161        1.55053
O          1.37614       -0.46916       -1.47149
H          1.64609        0.11509       -2.20942
O          1.51758        0.78084        1.16915
H          1.40859        1.17743        2.05774
H          2.46575        0.81555        0.92723
H         -1.86791        1.31326        1.54563
H         -0.95334        2.07032       -1.55234
H          1.86671       -1.31314       -1.54756
H         -2.46566       -0.81719       -0.92571
H         -0.21331       -2.67057        0.65318
