133
 energy: -226.237763726447 gnorm: 0.000885093535 xtb: 6.6.0 (conda-forge)
C           -1.23070675941612       -0.26584566461514       -0.63081236759436
C           -0.13202487619833        0.60425728203426       -0.65026628458773
C            1.22030152960935        0.01101996550198       -0.59359631872147
O            2.25129815683231        0.74239998687843       -0.59660770934093
C            1.28194476916697       -1.40547383608254       -0.54197069837198
C            0.14906826594356       -2.17566316182215       -0.53130345782529
N           -1.07533606369158       -1.63161690993086       -0.56621957308678
C           -2.23653547000044       -2.49114990407371       -0.54178126404682
O           -0.26627142031612        1.87636365623218       -0.71862653753279
H            2.24999091898971       -1.88617160278402       -0.50851516745792
H            0.19495984727855       -3.25329444515316       -0.48674864740292
H           -2.81531884020981       -2.37846995930374       -1.45950735293460
H           -1.91175182862390       -3.52537027089910       -0.45259464305423
H           -2.87995078462533       -2.24725907649391        0.30433468902961
Fe           1.76823170784526        2.89433065277550       -0.67261129237192
C            3.63424337963241        3.37585297012946        3.23768077675497
C            3.19437531136502        3.32336489420047        1.90787459002472
C            4.16828617672516        3.64964294328041        0.84503290910498
O            3.84619042577740        3.57878394155926       -0.37520712144346
C            5.46424734473186        4.03349614444554        1.27652129788204
C            5.79597765111531        4.07770051671170        2.60503560930236
N            4.91602251487803        3.75597607854555        3.56371189684824
C            5.31754400811706        3.82394730258601        4.95000028799022
O            1.99517580440660        3.00083642176682        1.59362674954941
H            6.20540619360411        4.29284440643647        0.53289269226582
H            6.78001233372771        4.37313324474747        2.93670075024193
H            5.21259129200677        2.85132179723027        5.43209413687385
H            6.35696744155452        4.13937072172436        5.00407479220214
H            4.70103195133299        4.54285217913019        5.49079389554724
C            0.92350781611170        6.55333432969926       -2.88985714102873
C            1.19635284785728        5.28623126630279       -2.35567368696043
C            1.58528703709165        4.21262564983391       -3.29278761370150
O            1.84441320875122        3.04641395110990       -2.87541919409157
C            1.64632216269719        4.56764849842326       -4.66464618123225
C            1.36265837915706        5.83878059534343       -5.09236800678945
N            1.00914940728505        6.80767423650050       -4.23749326281537
C            0.70564160259820        8.12850021031826       -4.73915947429545
O            1.11652444050862        5.03898634260276       -1.10006316354000
H            1.93349345921073        3.81574339724292       -5.38789845653889
H            1.41569094645606        6.11272064121751       -6.13534822698836
H            1.35511469803226        8.87362013540981       -4.27831307802774
H            0.85441053360453        8.14351039574544       -5.81625894298213
H           -0.32904372493552        8.39290317774408       -4.51592495954178
C            2.69922122228247        2.99814352645684        4.34799268969051
H            1.77533849052717        2.66542232170679        3.88051357135673
H            3.10219447972958        2.19110265994112        4.96074785115762
H            2.47734846891527        3.84072863330866        5.00550159196868
C           -2.62162275630861        0.29354523794923       -0.67056004172945
H           -3.21250870473999       -0.02109565046889        0.19004190405852
H           -2.52232230457545        1.37608723035999       -0.65672456687211
H           -3.15668914196159        0.00043170004361       -1.57617125406587
C            0.52538557731937        7.67833341379683       -1.98243614179921
H           -0.46893259926730        8.05748829500766       -2.22183305371125
H            0.52590531529284        7.28090471826680       -0.97112235313118
H            1.22460041885734        8.51373521430397       -2.03885637630487
O            4.56739473276899        0.96393115029241        6.84970904824479
H            4.80095990580966        0.03436441703507        6.76339043189215
H            4.33809702591873        1.10702316374293        7.77368346920539
O           -0.36726599345454        1.22042133695573        8.63802126150979
H           -0.23083250027790        0.48918452832417        8.02724185594725
H           -0.54961619364700        1.99863364294890        8.10203358855985
O            3.43221765336585        8.86149886170579        7.33254515173254
H            3.78300750124341        9.01259173930219        6.44902939341730
H            2.59932727232300        8.39115118727475        7.22590350014298
O            5.52660597646561       -4.56396003997936        7.43084132251987
H            6.22615533343164       -4.58261867852103        6.77001813052069
H            4.69344898907569       -4.66738976988339        6.95978778585931
O           -3.37365340798247        2.96272791952265        4.44168918387655
H           -2.70786435022918        2.84575554336464        3.75593332415730
H           -3.68871183287885        3.86895605761002        4.37091400688089
O            8.58406640433815        5.01157234509747        4.76095939102037
H            9.32939231001971        4.48825884272354        5.07295154009660
H            8.78408485975324        5.93127588652619        4.96185848970958
O            0.95149929844736       -2.75052941125905        4.78742423642982
H            1.29618464800073       -1.96299886885293        4.35467746024206
H            0.20210701261429       -3.04996164593115        4.26346339765485
O           -0.56648792432309        7.68891786707315        3.79465905121343
H           -0.29963046934369        6.86166787414566        3.38035158744587
H           -0.11497360586143        8.39320657280404        3.31935472399654
O            9.55857629513729       -0.20464222343433        4.04687702379582
H            9.88077612056918       -0.17458503640231        3.14091099687645
H            8.62419454361896        0.02456425094163        4.01778283704405
O           -4.37461316654185       -1.62171667311955        2.08606288008752
H           -4.09283205769764       -1.47047856905907        2.99380884554696
H           -5.33676550481540       -1.64679390426141        2.09270112716441
O            4.77628311143841        9.34738998721293        1.89493525565506
H            4.14804482095482        8.74925438991145        1.47800148591028
H            5.65359692706919        9.04102593577610        1.64562946648694
O            5.09763262400195       -5.52226053844685        2.27523320615944
H            5.83427092682523       -5.19153993686983        1.75067434261373
H            4.41814087444540       -4.84031636784289        2.26489533778167
O           -4.32780488065454        6.24072887734108        0.26486060340065
H           -3.56924394614789        5.66610149263910        0.11809707978681
H           -3.97979412910806        7.08005291661504        0.58166263610088
O           11.29679831539985        3.76812088504686       -0.17548179423988
H           10.69149276607621        3.63037663070009       -0.91109931015140
H           10.75662251111511        3.94665603110941        0.60086166511776
O           -0.75149010257576       -5.64407709887495       -0.15997844038469
H           -0.69540725819787       -6.29369340383483       -0.86794729744558
H           -0.61993752176914       -6.11929279285022        0.66675849745654
O            2.21384089765029       10.85144796802471       -2.93112010145833
H            3.12479184361858       11.08840014264887       -2.73151368548075
H            1.68977196379460       11.65404257736182       -2.84309207791395
O            7.17575496275080       -1.27306093761228       -0.49355872981401
H            6.62782255099589       -0.53712614845052       -0.20162105323212
H            6.74683080295976       -1.64464309930606       -1.27039392245457
O           -4.18274084267214        3.89095789657341       -4.65693729482151
H           -3.27908910660263        3.96695526925663       -4.33336332265781
H           -4.74512530429199        3.77864876285540       -3.88429612418525
O            6.65346916122077        8.01840093659713       -2.90751665861247
H            7.16413031680850        7.55784952605751       -3.58031374105994
H            5.90018219385362        7.45711070706616       -2.69696691099111
O            1.03830866318919       -5.38442411017475       -5.12341239539488
H            1.70480372392004       -4.90019782152455       -4.62572411487327
H            0.47690079462738       -4.72672387984388       -5.54588275093852
O           -2.54536928969410        9.08188826918083       -3.71505811312269
H           -3.33632747120806        8.54225721476748       -3.81156916599815
H           -2.83659134573851        9.99601025676757       -3.63723708825424
O            7.33107623786444        2.87739928732991       -4.33203116956283
H            7.57146837528961        1.99813129750098       -4.02367467015205
H            6.43840979301964        3.04576727794019       -4.01236905277356
O           -1.18884261299322       -0.40837759936159       -6.23166586819821
H           -0.67027748310010        0.03944124122953       -5.55552860595959
H           -2.09634596923734       -0.10417703244634       -6.13269546546133
O            1.42256958316197        7.83708947790217       -8.15037701575754
H            2.24933358905192        8.15337100203386       -8.52789381081607
H            0.78215879127526        7.80018290517965       -8.86811897434177
O            4.22369238132280       -1.00926386051005       -5.56245134940378
H            4.00816713881336       -0.33850443469801       -6.21769089874215
H            3.83670407845485       -0.71412631695591       -4.73172961613510
O           -1.62718767168993        3.84827946153099       -9.57586100611104
H           -0.94155131552363        3.36755271386373       -9.10147841073617
H           -2.24955021901434        4.16784999501927       -8.91476975100080
