%chk=deferipronate_solvated_3_Reduced_Structure.chk
#p B3LYP empiricaldispersion=gd3 scrf=(cpcm,solvent=water) scf=(maxcycles=500,xqc,maxconventional=1000) 6-31+G(2df,p)

Reduced_Structure

-1 1
C           -1.07220124478635       -0.25269785340330       -0.90460455569843
C           -0.02063661224243        0.67360876249187       -0.86458262837442
C            1.35859798094125        0.14678303986107       -0.79477329576462
O            2.35250490432166        0.92624370897976       -0.75586886791079
C            1.49150864724066       -1.26607705090838       -0.78045504605532
C            0.40019822303917       -2.09311860168431       -0.82039073090134
N           -0.84842652403579       -1.61004142459836       -0.87783845409919
C           -1.96306745910643       -2.52758812158589       -0.93746910639466
O           -0.21943758605754        1.93926143837958       -0.89243396796881
H            2.48262195629305       -1.69551089424019       -0.73436947953174
H            0.49942137290654       -3.16807426080577       -0.80187971379671
H           -2.48115003362764       -2.43796138774363       -1.89357187262691
H           -1.59218177886667       -3.54428441411069       -0.83047310217197
H           -2.67602850337033       -2.32273129556186       -0.13887917541474
Fe           1.78633044715899        3.06153554042081       -0.78687422673934
C            3.58397423872480        3.58969670853647        3.15763222896911
C            3.17748211031722        3.49549175619539        1.81906438545761
C            4.17576477991889        3.80099397377863        0.77296965636012
O            3.86879515016801        3.76010512754824       -0.45286316135159
C            5.47687420251787        4.13886416389849        1.22706424010058
C            5.78574886868084        4.18602912437036        2.56139116870254
N            4.87058078840275        3.92799019910021        3.50574442639734
C            5.24075659654194        4.01764970662752        4.89993525537732
O            1.98502562694796        3.16576309554142        1.48707714755922
H            6.24218119545356        4.35981288737078        0.49576786260167
H            6.77770405867450        4.43466706395049        2.90723955004362
H            5.03158744348155        3.08024138951613        5.41545371724002
H            6.30346496447526        4.23726623669500        4.97188370715423
H            4.67922595597351        4.81185196467747        5.39386533433439
C            0.82682852415500        6.78421833039445       -2.84350459568020
C            1.15139700823680        5.50457748515395       -2.37116839719927
C            1.60868478524586        4.50115416270090       -3.35438168856955
O            1.89467476380132        3.32160595955939       -2.99657080105762
C            1.70256561913275        4.93990733007262       -4.70018765268656
C            1.37584475648653        6.22054898748105       -5.06463788907430
N            0.94413755176074        7.11965341502841       -4.17025113950861
C            0.58788907914785        8.44994322364148       -4.60790810122229
O            1.05860883500983        5.18887556178603       -1.13241751992034
H            2.04917055090125        4.24571290456324       -5.45405246624892
H            1.45846928743376        6.55985489596952       -6.08590774954280
H            1.16409509565711        9.19973613394495       -4.06497102448714
H            0.79511163151911        8.54065250256125       -5.67160672663750
H           -0.47166897575344        8.64012545294488       -4.42873128716392
C            2.59844742916103        3.31687250108423        4.25421390130539
H            1.66707284457449        3.02920879472943        3.77274714206005
H            2.92835463852295        2.51049632249201        4.90918504454987
H            2.42087632019401        4.20030263541911        4.86963344050659
C           -2.48983963541272        0.23333059073573       -0.96893863735748
H           -3.08232047337795       -0.12790527109676       -0.12798651748155
H           -2.44721808083550        1.31898520047003       -0.93754331141433
H           -2.98823919554111       -0.07614628107990       -1.88944186911434
C            0.34165434114825        7.83135635201602       -1.88682074693084
H           -0.66263251865768        8.17468600597116       -2.13799841878483
H            0.33103793369259        7.37153473841405       -0.90235726203830
H            0.99775843626535        8.70230137271629       -1.86751711466764
O            4.08090440236607        1.29063423142192        6.82380606783112
H            4.05326611810471        0.32908101798195        6.81382697712066
H            3.95556188231065        1.55849161639328        7.73959406023821
O           -0.84991078458633        1.91802156340088        8.29074594311502
H           -0.69103868420663        1.38219758440220        7.50739490655197
H           -0.51827390045692        2.80142928776081        8.10248018599614
O            3.36668922311268        8.22642059634085        6.97525879570180
H            4.12456840273960        8.79515144601516        6.80626982110363
H            2.69242470494155        8.45883911188538        6.32942165256820
O            5.95757710877688       -3.71407492514669        7.86586636406259
H            6.76699930121356       -4.00950649433765        7.43679581895526
H            5.23160826708428       -4.19314295358603        7.45457242973966
O           -3.60481397555451        2.64836547829421        4.01136024130268
H           -2.78989832333507        2.62381374084783        3.50051944025465
H           -4.32510357456141        2.49246118587960        3.39305176309582
O            8.64402201401635        4.78313067323789        4.68466656785311
H            9.30504859636803        4.16139035282401        5.00569064039357
H            9.00208713190449        5.66435033461508        4.83055749473752
O            0.63462999015156       -2.24042852957175        4.58378028441281
H            0.76459410618944       -1.43918496802388        4.06714700008246
H           -0.01177864457232       -2.77497302053473        4.11219499716175
O           -1.26914776459207        7.74944133403839        3.83259366379487
H           -0.94117095744811        6.91435188822216        3.48418640666053
H           -1.10317094298835        8.41766911216816        3.16061710040080
O            8.77161871817000       -0.58273619504832        4.07590501709117
H            8.48262301726639       -0.45644679566263        3.16709026775646
H            8.05636943492215       -0.27760924446502        4.64310473218320
O           -4.41467592518188       -1.88286434955498        1.42175727159727
H           -4.27445908934000       -2.04272344643537        2.36041611930674
H           -5.33982451486281       -2.07961758078989        1.24358195283685
O            4.34369399637542        9.41362817851092        2.09663273156510
H            3.75463374717869        8.72096860776304        1.78165305005299
H            5.24127264255041        9.08563141642493        1.98774199591234
O            5.30014967109023       -4.58809693106402        2.37849488535139
H            5.26586496683268       -4.56783753721023        1.41706234966490
H            4.56848779886721       -4.05220690254094        2.70003176947281
O           -4.54827535542730        5.86442015665354        0.01515658472736
H           -3.67989856150724        5.46601881655128       -0.10176488858580
H           -4.40209618850893        6.76163898681998        0.32973187651560
O           10.98330688291020        3.08134741454966       -0.31724705249678
H           10.33996068087654        3.00864304299679       -1.02893692290065
H           10.52993789364083        2.83439072198928        0.49502215377709
O           -0.54721615901223       -5.62507503286628       -0.48018277666943
H           -0.48924478938246       -6.30105207175676       -1.16300354427614
H           -0.61006449282385       -6.08712250127586        0.36199004380071
O            1.85885047271168       11.10771368501956       -2.35749044267915
H            2.71397220239323       11.41040068653321       -2.03631785498534
H            1.23502169159274       11.82433770645885       -2.20334704290370
O            7.42884588865193       -0.69984639396831       -1.36582230342428
H            6.77370250831911       -0.03449203189160       -1.13228767743585
H            6.97253072489588       -1.36901047078716       -1.88498349333294
O           -4.11696203303716        4.18049301301273       -4.94746585298723
H           -3.22764462296492        4.36540408741883       -4.63042394971627
H           -4.53929411165540        3.63013914435428       -4.28089829310563
O            6.12221677931613        8.34673206686104       -2.97565967055976
H            5.68565510769476        8.38384638431471       -3.83202253419797
H            5.62123281883261        7.72577213667279       -2.43798140677405
O            1.20947324033370       -4.80570443553418       -5.53064503821715
H            1.90719782695923       -4.98959640251717       -4.89356977114511
H            0.97811940529874       -3.87651689158618       -5.43304289638022
O           -2.72299287061240        9.37894881916689       -3.61643142468308
H           -3.56029535350004        8.90698853406245       -3.65865156391760
H           -2.93615964346368       10.31026634662668       -3.50043963164189
O            7.35897626978336        3.53518532429250       -4.72824128879490
H            7.58564546851398        2.60745297080571       -4.84568576051857
H            6.54027890246581        3.56231460278860       -4.22245702457445
O           -1.08271684802957        0.17565243316051       -6.56256155729136
H           -0.74372745260702        0.62476783722037       -5.78206737648012
H           -2.04274831579279        0.18740055888146       -6.49974684811846
O            1.63614872457163        8.38325323727719       -7.94315117138315
H            2.52020816270830        8.68477531193101       -8.17461434209052
H            1.13728369442802        8.33138500689564       -8.76480530757632
O            4.19395733812563       -0.48788129928436       -5.89798761133793
H            3.71440619151765       -0.00366602832850       -6.57638258612611
H            3.86566974141486       -0.17258009445307       -5.04985602792620
O           -1.37111518152064        4.41115129720533       -9.92484270370825
H           -0.55176604980140        4.29119500360575      -10.41448989275330
H           -1.17474446073295        4.23657877946112       -8.99896209132599
O            4.44529418384621        2.98825783945526       12.18246330316359
H            4.79790229629747        3.87646649729517       12.06949866622123
H            3.48714387610997        3.05765132294056       12.12304308516724
O           -1.33783487470610        0.91593097922883       10.91473231081023
H           -1.10620930604293        1.23433684690403       10.02699349197123
H           -2.22800001709009        1.23945366821150       11.08406022557551
O            2.61515033905133        7.22595815925823        9.55118370939010
H            2.90973438740263        7.45361620520963        8.65469166183045
H            2.18674466402137        8.01474065344432        9.89738385117863
O            8.75944402172593        0.95705513261593        9.16254175277764
H            8.15187330954262        0.22908618910877        9.32748382527026
H            8.33787130653775        1.75607815744624        9.49467983036066
O           -6.12940947546894        3.19717467335212        8.89432343747324
H           -5.41419469066054        3.22359572890041        8.25040051437184
H           -6.68718934022732        3.96255878282878        8.72400970606080
O            8.15284217820798        6.78242061298162        9.40073854369200
H            8.08690288666066        7.68560907281571        9.07533693651696
H            7.37118558819685        6.31486550288136        9.08900987885496
O           -3.30528968610620       -2.95349402855240        7.88254809287323
H           -2.39873908782487       -2.88810100657698        8.19871874493948
H           -3.76276749822261       -2.16043447568193        8.17906448871531
O           -0.93241139703099       11.30386610386051        7.64023764481498
H           -1.28051496365515       10.41094737761167        7.72950799840479
H           -0.96561135791011       11.52575194608781        6.70452435035732
O           10.61720340549233       -2.51224689224116        5.10368569283630
H           10.82286200588749       -2.16064140506215        5.97502900360928
H           10.01409407471551       -1.87058081499100        4.69455576280523
O           -7.84090712220655       -0.72071011758157        5.10535772178578
H           -7.32895166811071       -0.24189989030591        5.76512051836539
H           -8.12981955468501       -0.07725356039507        4.45063098607138
O            8.14473726855135       10.84753154877034        5.49344388316642
H            8.82529053368952       10.33959622106045        5.04070179320968
H            7.88159926543970       11.55573563769234        4.89766123187765
O            6.34966833462998       -6.88246066869561        3.70256701387493
H            7.30186044087711       -6.74718343324273        3.67885791995053
H            5.95949033093758       -6.09972489024895        3.27909601494013
O           -6.71687384007316        6.75510723663043        4.91207573541775
H           -7.00942937878336        6.23866324599113        4.15431041428226
H           -5.75431504993931        6.74134182569156        4.90485779003088
O           13.59672218212969        5.67700748179368        3.33907152083305
H           13.93657176262165        4.89189349126459        2.89846931567686
H           13.07035760578916        6.15647077058543        2.69116854784820
O           -3.25249581477214       -6.59007548132330        4.21981902146789
H           -2.61661874232903       -6.56004027160310        4.94127302934396
H           -4.05752484178554       -6.17079439462324        4.53950525018395
O            0.30094020403146       13.21200778957344        2.37224293859383
H            0.96386804862424       12.51434565228296        2.38543454386307
H            0.76816143993577       14.04143583996355        2.23364959672359
O           10.42814663538118       -4.97612432383309        0.50292306895231
H           11.07108311009788       -5.02792739237289        1.21671762587211
H            9.83866583993615       -4.24445682026149        0.71202064311886
O           -8.01883828545630        2.17465745636048        0.33012069037978
H           -7.22792890675087        1.96058202369434       -0.17496373779774
H           -8.34805492073601        3.01366392853986       -0.00585222442879
O           10.25725405124050        9.36569059958141        0.66423056270432
H           10.99078844794313        9.47678218603510        0.05157053012692
H            9.51339329783113        9.03459825508499        0.15132967361112
O            2.94538863415565       -9.21533942318873        0.29769246816268
H            3.26035753200356       -9.29917857904273        1.20305696121371
H            3.55548103101690       -8.62631292388999       -0.15764126078934
O           -4.74634127458518       11.41099823908737        0.78855475415845
H           -3.83284673787204       11.70168691328034        0.87558581276507
H           -5.15469933940413       11.50004681006513        1.65519516291311
O           12.61009786164452       -1.37145457894432       -3.13195411719865
H           12.82689549615938       -0.63163033513679       -2.55609144230732
H           11.88852243519301       -1.85047928086782       -2.71189480890153
O           -5.82418859265814       -6.42071965964177       -0.84742068513807
H           -5.23219912853914       -6.50160922740439       -0.09258530902519
H           -5.27983271062378       -6.18824708082705       -1.60620058474150
O            2.54063841496425       15.99129346679838       -3.94655620305482
H            3.01450486170704       15.41541882829950       -4.55512592620322
H            1.68849177008211       16.18500005273536       -4.35004842334850
O            6.22616385908893       -5.92829915523689       -3.02371246191050
H            7.08696032170508       -6.05470769940780       -2.61208084989684
H            6.31019400621886       -6.20420270809783       -3.94162078578581
O           -8.70749039746480        6.36463194484850       -3.72642064746852
H           -8.25125778561957        6.39680943841413       -4.57326311016204
H           -8.05203718938990        6.55325436468990       -3.04683817369286
O           11.43322248741015        7.13811667528446       -4.07637747498208
H           11.85147268719732        6.27825261024130       -3.96787667519275
H           10.48447413088686        7.00094222414637       -3.98605684406096
O           -0.96496106342353       -6.58666742511317       -5.91675423494322
H           -0.19569897802890       -6.01017870013234       -5.76824669776882
H           -1.22477747985305       -6.44841482953897       -6.83238985263853
O           -1.15497741184282       13.42971520246239       -6.92638398666827
H           -1.90709623625715       12.94459667224923       -7.27974818883176
H           -0.49984144415137       12.77426189877191       -6.66549613009358
O            9.37006545852583       -0.90824873731259       -7.57557020247902
H           10.13684640144122       -1.22079790508182       -7.08565350926796
H            8.60974709501281       -1.40605148191424       -7.25826306812470
O           -6.06073137638161        1.48773947603930       -8.90469104529308
H           -5.36277324513427        2.11199303230693       -9.12780485697675
H           -6.61144141169591        1.91091027184894       -8.23852691885397
O            7.18287751247753        7.75777005675706       -8.34468916884042
H            7.00583109456254        6.86450726162344       -8.03279647448762
H            7.97346837999982        8.06187396858334       -7.88821104464152
O            5.47024299872760       -5.33984120215364       -8.46748697868096
H            5.17143603936690       -4.46840668657811       -8.18832517944996
H            4.68265515971045       -5.87841974886698       -8.59352483600964
O           -3.79776169822723        8.90585149789456       -8.90117494126754
H           -3.67712537723897        8.46486890594367       -9.74763848582339
H           -3.48335852208593        8.29919467738042       -8.22296619919764
O            6.49130148223028        2.43764314999974      -10.33644635047512
H            7.19894253241858        1.85857572242639      -10.63564453503585
H            6.49842145225959        2.41250403602920       -9.37439828868008
O           -1.26103697102868       -0.20047633431062      -12.06636773826129
H           -0.89546244318119       -0.33613991457948      -11.18641285849855
H           -2.15510128352233        0.13611193133372      -11.94841514078121
O            3.43791500463807        6.14338117245201      -12.28323514389005
H            4.25029401654499        6.32805002003087      -11.80110321835086
H            3.50157200599813        5.23647340724608      -12.59810179257842
O 5.263539616755487 2.857018370172992 15.105852750921745
H 6.163539616755488 2.857018370172992 15.105852750921745
H 4.970528277744046 3.707985088212377 15.105852750921745
O -2.013199795250352 -0.8634461767156631 14.431709141253712
H -1.113199795250352 -0.8634461767156631 14.431709141253712
H -2.306211134261793 -0.012479458676277977 14.431709141253712
O 2.6626989783864285 9.860289937098617 13.75756553158568
H 3.5626989783864285 9.860289937098617 13.75756553158568
H 2.3696876393749875 10.711256655138003 13.75756553158568
O 7.050703437571984 -3.668018643896424 13.083421921917648
H 7.950703437571985 -3.668018643896424 13.083421921917648
H 6.757692098560543 -2.8170519258570392 13.083421921917648
O -7.023702623190242 4.461688899251748 12.409278312249615
H -6.123702623190241 4.461688899251748 12.409278312249615
H -7.316713962201683 5.312655617291133 12.409278312249615
O 10.537495028418398 8.257289603464026 11.735134702581583
H 11.437495028418398 8.257289603464026 11.735134702581583
H 10.244483689406957 9.108256321503411 11.735134702581583
O -0.7561886082267502 -7.574719339663463 11.060991092913552
H 0.14381139177324986 -7.574719339663463 11.060991092913552
H -1.0491999472381912 -6.723752621624078 11.060991092913552
O -3.231833215633716 13.023169078556311 10.386847483245518
H -2.3318332156337163 13.023169078556311 10.386847483245518
H -3.5248445546451572 13.874135796595697 10.386847483245518
O 13.353629340392398 -1.2717502867342523 9.712703873577485
H 14.253629340392399 -1.2717502867342523 9.712703873577485
H 13.060618001380957 -0.4207835686948671 9.712703873577485
O -9.555580991173183 -1.93280401342074 9.038560263909451
H -8.655580991173183 -1.93280401342074 9.038560263909451
H -9.848592330184625 -1.0818372953813549 9.038560263909451
O 7.564652057244777 14.6456134262877 8.36441665424142
H 8.464652057244777 14.6456134262877 8.36441665424142
H 7.271640718233336 15.496580144327085 8.36441665424142
O 6.066859168312152 -9.955484375524133 7.690273044573389
H 6.966859168312152 -9.955484375524133 7.690273044573389
H 5.773847829300711 -9.104517657484747 7.690273044573389
O -9.887732468030066 9.774065396701094 7.016129434905356
H -8.987732468030066 9.774065396701094 7.016129434905356
H -10.180743807041507 10.62503211474048 7.016129434905356
O 15.83957630403896 5.889040246981857 6.341985825237322
H 16.73957630403896 5.889040246981857 6.341985825237322
H 15.54656496502752 6.740006965021242 6.341985825237322
O -6.238156327289853 -8.929299460596521 5.667842215569291
H -5.338156327289853 -8.929299460596521 5.667842215569291
H -6.531167666301294 -8.078332742557135 5.667842215569291
O 0.1643981502024212 17.39325759833416 4.993698605901259
H 1.0643981502024213 17.39325759833416 4.993698605901259
H -0.12861318880901979 18.244224316373543 4.993698605901259
O 13.420882747776854 -6.72799221888586 4.319554996233226
H 14.320882747776855 -6.72799221888586 4.319554996233226
H 13.127871408765413 -5.877025500846475 4.319554996233226
O -12.994518621147428 2.23495970956103 3.6454113865651934
H -12.094518621147428 2.23495970956103 3.6454113865651934
H -13.287529960158869 3.0859264276004152 3.6454113865651934
O 12.826282668484314 13.58277006719003 2.971267776897161
H 13.726282668484314 13.58277006719003 2.971267776897161
H 12.533271329472873 14.433736785229415 2.971267776897161
O 1.340208368108397 -12.451348216417585 2.29712416722913
H 2.240208368108397 -12.451348216417585 2.29712416722913
H 1.047197029096956 -11.6003814983782 2.29712416722913
O -7.827449398287663 14.691202545350759 1.6229805575610958
H -6.927449398287663 14.691202545350759 1.6229805575610958
H -8.120460737299103 15.542169263390145 1.6229805575610958
O 17.382196335796323 0.7938346422952387 0.9488369478930623
H 18.28219633579632 0.7938346422952387 0.9488369478930623
H 17.089184996784883 1.6448013603346239 0.9488369478930623
O -10.67656988371309 -5.996461263408601 0.2746933382250305
H -9.776569883713089 -5.996461263408601 0.2746933382250305
H -10.96958122272453 -5.145494545369216 0.2746933382250305
O 5.450400435318825 17.980675893897978 -0.3994502714430035
H 6.350400435318825 17.980675893897978 -0.3994502714430035
H 5.157389096307384 18.83164261193736 -0.3994502714430035
O 9.740607938317407 -10.567469401887987 -1.0735938811110355
H 10.640607938317407 -10.567469401887987 -1.0735938811110355
H 9.447596599305966 -9.716502683848601 -1.0735938811110355
O -12.636188918530117 7.541700515540162 -1.7477374907790655
H -11.736188918530116 7.541700515540162 -1.7477374907790655
H -12.929200257541558 8.392667233579548 -1.7477374907790655
O 15.959728207831077 9.284552912966866 -2.4218811004471
H 16.859728207831076 9.284552912966866 -2.4218811004471
H 15.666716868819636 10.135519631006252 -2.4218811004471
O -3.822225341726843 -11.169775025192369 -3.096024710115131
H -2.922225341726843 -11.169775025192369 -3.096024710115131
H -4.115236680738284 -10.318808307152983 -3.096024710115131
O -3.0474734281825437 17.023953685707344 -3.770168319783164
H -2.147473428182544 17.023953685707344 -3.770168319783164
H -3.340484767193985 17.874920403746728 -3.770168319783164
O 15.213708912162502 -4.062467449366447 -4.444311929451196
H 16.1137089121625 -4.062467449366447 -4.444311929451196
H 14.920697573151061 -3.211500731327062 -4.444311929451196
O -12.125553803124262 -0.8791058904145359 -5.118455539119226
H -11.225553803124262 -0.8791058904145359 -5.118455539119226
H -12.418565142135703 -0.028139172375150734 -5.118455539119226
O 9.840254364783778 14.9756405751892 -5.7925991487872635
H 10.740254364783778 14.9756405751892 -5.7925991487872635
H 9.547243025772337 15.826607293228586 -5.7925991487872635
O 4.439815869327844 -11.059810907096118 -6.466742758455296
H 5.339815869327844 -11.059810907096118 -6.466742758455296
H 4.146804530316403 -10.208844189056732 -6.466742758455296
O -8.858771272165622 11.303896681482033 -7.140886368123328
H -7.958771272165622 11.303896681482033 -7.140886368123328
H -9.151782611177063 12.15486339952142 -7.140886368123328
O 15.43021832787569 3.965701214867751 -7.815029977791361
H 16.330218327875688 3.965701214867751 -7.815029977791361
H 15.137206988864248 4.816667932907136 -7.815029977791361
O -6.79048567138858 -6.697211631514281 -8.48917358745939
H -5.890485671388579 -6.697211631514281 -8.48917358745939
H -7.083497010400021 -5.846244913474896 -8.48917358745939
O 2.109318397897956 15.41024846605638 -9.163317197127421
H 3.009318397897956 15.41024846605638 -9.163317197127421
H 1.816307058886515 16.261215184095764 -9.163317197127421
O 10.134802627105085 -6.057413561566052 -9.837460806795452
H 11.034802627105085 -6.057413561566052 -9.837460806795452
H 9.841791288093644 -5.206446843526667 -9.837460806795452
O -9.358519843324988 3.9141794366126748 -10.511604416463486
H -8.458519843324988 3.9141794366126748 -10.511604416463486
H -9.651531182336429 4.76514615465206 -10.511604416463486
O 10.652583477857842 9.387530090514549 -11.185748026131524
H 11.552583477857842 9.387530090514549 -11.185748026131524
H 10.359572138846401 10.238496808553935 -11.185748026131524
O 0.24724223719512128 -7.041976016646969 -11.859891635799553
H 1.1472422371951212 -7.041976016646969 -11.859891635799553
H -0.04576910181631971 -6.191009298607584 -11.859891635799553
O -2.8586085500031615 10.654236531588868 -12.534035245467585
H -1.9586085500031616 10.654236531588868 -12.534035245467585
H -3.1516198890146025 11.505203249628254 -12.534035245467585
O 9.977744629807372 0.6838259210118256 -13.20817885513562
H 10.877744629807372 0.6838259210118256 -13.20817885513562
H 9.684733290795931 1.5347926390512108 -13.20817885513562
O -4.206584099018723 -0.35277173915063287 -13.882322464803648
H -3.3065840990187234 -0.35277173915063287 -13.882322464803648
H -4.499595438030164 0.4981949788887523 -13.882322464803648
O 3.9626829867226 8.021332443497709 -14.55646607447168
H 4.8626829867226 8.021332443497709 -14.55646607447168
H 3.669671647711159 8.872299161537095 -14.55646607447168
O 3.2604451389642506 -0.1211275607067992 -15.230609684139713
H 4.160445138964251 -0.1211275607067992 -15.230609684139713
H 2.9674337999528095 0.729839157332586 -15.230609684139713


