382
 energy: -648.570006870584 gnorm: 0.000279168475 xtb: 6.6.0 (conda-forge)
C           -0.83334962316328       -0.28038659750397       -1.19405222798001
C            0.18880261261018        0.67727703977159       -1.11729514922568
C            1.57554332111870        0.18979468489615       -0.96138204296799
O            2.54980773145930        0.99416249108659       -0.90964933081989
C            1.74219908421638       -1.21680455405713       -0.88208661625562
C            0.67581440431124       -2.07453306721879       -0.95437013913100
N           -0.57722038145911       -1.62809440762163       -1.10947771942232
C           -1.66453823240811       -2.57676253263065       -1.19082406952895
O           -0.04193245686006        1.93654661408531       -1.18321375684314
H            2.74066437114082       -1.61489355457445       -0.76494934438344
H            0.80073293738652       -3.14475887704953       -0.88781145848776
H           -2.17491600323033       -2.49719512301063       -2.15161265243786
H           -1.26515215113608       -3.58202108578960       -1.08067961077068
H           -2.39304876535563       -2.39416957971949       -0.40067572384033
Fe           1.94745057689342        3.12395830311564       -1.03148346467835
C            3.64340610902037        3.85958794894371        2.94302819621661
C            3.27199674068947        3.68297753809443        1.60218327333740
C            4.29785320407041        3.93220064049140        0.56661900090468
O            4.01951054002892        3.84251157498219       -0.66328218002687
C            5.59282176032383        4.27440596760953        1.03567008933500
C            5.86842117896312        4.39131118074102        2.37274973108389
N            4.92428568567801        4.20505537671776        3.30488455868336
C            5.25914397076385        4.37012991381920        4.70092584776159
O            2.08988165228562        3.32852042991343        1.25943695729232
H            6.38123324057603        4.43989274106825        0.31448035767738
H            6.85629351890717        4.63875354153441        2.73030980305568
H            5.03744387087253        3.46047456123718        5.25919385422002
H            6.31968189642465        4.59430141838396        4.78703208295298
H            4.68544739513701        5.18927754301886        5.13578170152751
C            0.92866939885105        6.81125541686448       -3.12901477584959
C            1.28357686838612        5.53955236880179       -2.65561878501846
C            1.76956196807437        4.54774334865714       -3.63705616232703
O            2.09316365179784        3.37822682712407       -3.27712964144813
C            1.84599910674594        4.98804913222466       -4.98379219729685
C            1.47925750272658        6.25814190354917       -5.35040243911831
N            1.02890515346780        7.14712848276569       -4.45573272747414
C            0.64052100845220        8.47046616052701       -4.88811947248736
O            1.19616180586153        5.22527382460399       -1.41665264620606
H            2.20718507420695        4.30205913622420       -5.73847625423526
H            1.54024913144240        6.59461650512589       -6.37448062597887
H            1.24378121306678        9.22905626978595       -4.38778314546373
H            0.78367217412076        8.55138222489818       -5.96286560830330
H           -0.40666514997401        8.65473106398179       -4.64633809434904
C            2.62686642905769        3.67145957140365        4.02950135670433
H            1.70055211154356        3.37662839494634        3.54318075062690
H            2.92335880093503        2.89775719195263        4.73752150047471
H            2.45646184394905        4.59287259528038        4.58852726989933
C           -2.25672113256597        0.15726348967606       -1.37268882099842
H           -2.89204577532011       -0.18940819068838       -0.55730781820567
H           -2.25220274351344        1.24401661149314       -1.38812812181942
H           -2.67878039447440       -0.21230558678987       -2.30859225259068
C            0.42166711506104        7.84609316077931       -2.17060223081309
H           -0.59763602066195        8.15078462670357       -2.40884374713968
H            0.43939161280146        7.39074995952843       -1.18446198923830
H            1.04783350626848        8.73865409292212       -2.16580576378207
O            4.12495109052506        1.67191847322002        6.63150357500064
H            4.18182862553808        0.71730463322394        6.52833887561919
H            4.07513795987719        1.84528856380435        7.57705998436390
O           -0.79794613846098        2.55517575471159        8.25108017378349
H           -0.62471792887380        1.98395495461842        7.49645210478696
H           -0.30241794986579        3.36773318229874        8.10945671831288
O            3.03088149657697        8.54590254177420        7.08232570539754
H            3.84241491295981        9.06288936859361        7.10177211094131
H            2.51706584533507        8.85988936407444        6.33211430282487
O            5.02991856862029       -3.47503405792645        8.13290255392577
H            5.88368915441782       -3.80051775757555        7.83168711706385
H            4.35587109672938       -3.97673489718970        7.66425979547808
O           -3.41557375371820        2.21730131116813        3.73413089184660
H           -2.61365537727067        2.29319242751659        3.20817931417275
H           -4.15412267561429        2.21238834282079        3.11782221219050
O            8.64986675074617        4.94225272101479        4.66319341788411
H            9.15929102717562        4.31264791515555        5.18301808225314
H            9.10838774822366        5.78601882407310        4.72532533753372
O            0.53155693456900       -1.71064118546089        4.58815285795698
H            0.68308752111050       -1.00621056293729        3.95078282951028
H            0.01665898268267       -2.38874026225086        4.14002672339775
O           -1.07538896333242        8.13740748467102        3.46670125923857
H           -0.72796104405602        7.30967401090164        3.12082347769510
H           -0.92873966004767        8.80817440778094        2.79321458298911
O            7.90224944157740       -0.85787339172628        3.71817053049943
H            7.07983194620863       -0.99839357754999        3.23954360993036
H            7.94823228116519        0.07949165071410        3.93048986187451
O           -4.17351544637136       -2.09943291675911        1.11267968965309
H           -4.08151815770995       -2.27300567203562        2.05462742600721
H           -5.04420716567845       -2.41959777788144        0.85741381736357
O            4.12456569055437        9.52742953574979        2.02806421259855
H            3.60383854208657        8.78879660928959        1.69817643439883
H            5.04904326065512        9.29931496964305        1.89297237221225
O            4.62396487663291       -4.98365166798828        2.36902913879122
H            4.46991345224241       -5.19531674990725        1.44308022383407
H            3.90012069800889       -4.41891166002413        2.65607435848701
O           -4.36866262100311        5.72648177845268       -0.00956428416079
H           -3.48425088128849        5.38585985743748       -0.17794443774054
H           -4.26688422999436        6.63780374321954        0.28105030907353
O           10.90568657796132        3.47316476103358       -0.31856442111949
H           10.57650253144722        3.26027643968248       -1.19696675188376
H           10.59648561996439        2.78062880586748        0.27347979670108
O           -0.11115922388044       -5.63833329542424       -0.58242942230976
H           -0.06077118017666       -6.36301686962265       -1.21386637527316
H           -0.18357249635259       -6.03744944722800        0.29029279414732
O            1.91547509590970       11.16078539059131       -2.84360268706939
H            2.72838360941246       11.46607317108523       -2.42933089668540
H            1.28229664655664       11.88175842492040       -2.77050302403034
O            7.67811301263304       -0.52309553077568       -1.49056350596711
H            7.02728842626647        0.14945514715294       -1.26705095505086
H            7.20659588745627       -1.22339073108148       -1.95145255787467
O           -3.95998463372929        4.06395617654417       -5.21537395406718
H           -3.05668517187439        4.10376762031668       -4.88671561887127
H           -4.52766657342192        3.90991645322248       -4.45380945695347
O            6.17755663400472        8.44062853413878       -3.07131832680549
H            5.82976482655035        8.30712213257612       -3.95816441956849
H            5.67815389508524        7.86125609165812       -2.48818497759209
O            1.38366091589807       -4.73851924061451       -5.59371822943910
H            2.09418088746445       -4.77652850187469       -4.94593343596642
H            1.07385246315565       -3.82834136771777       -5.61634439679916
O           -2.65175211554965        9.10835702876446       -3.57958076436132
H           -3.42802473302630        8.58564276194416       -3.80162021436954
H           -2.97262761046795        9.94729728164417       -3.23440854036015
O            7.56766284662570        3.64731534567000       -4.83796391086004
H            7.65146562878952        2.71861074168385       -5.07474469268615
H            6.75992586597728        3.73110757837895       -4.32113453840150
O           -0.63497165018696        0.24787925960868       -6.98412568763334
H           -0.32348955665092        0.58585083352101       -6.13924476085480
H           -1.59446063282170        0.20393888105662       -6.92910057215026
O            1.31442701521709        8.58303840596063       -8.26908364091465
H            2.04330291178869        9.12856814432986       -8.58119423893101
H            0.65600606286870        8.57030269906912       -8.97102425448974
O            4.46268873921198       -0.61139200821249       -5.99853039668526
H            4.19295332452788        0.01690362526192       -6.67509874957648
H            4.10490457593180       -0.28974524502690       -5.16530757297731
O           -1.27379849686397        4.31125681060388      -10.38476872190314
H           -0.51190036933181        4.50554627725299      -10.93883597771407
H           -0.94888252750490        4.19723888919805       -9.48612713418915
O            3.31498671058861        2.68576934161627       12.12855613920617
H            2.84276916816684        3.44714630204871       11.77739595268091
H            2.69998182407174        2.21377524084853       12.69817084884773
O           -1.55215794349694        1.70513000159351       10.86147249020243
H           -1.26620623337970        1.94291429915086        9.96403683767027
H           -2.22540977831163        2.34758719093304       11.10336264897779
O            1.79331028209069        7.34203755007891        9.36147766189233
H            2.26620364488742        7.66910918905503        8.57927325031184
H            0.98249017137781        7.85674148845958        9.41662001540663
O            8.68433760229518        1.06289083653139        8.62339010243708
H            8.34242622467189        0.16379130619706        8.59998000154532
H            8.49923864399811        1.41254092031958        9.50027743818032
O           -6.44828097571743        2.07101950393544        8.17756208934590
H           -5.59248636932309        2.36233486183066        7.84702067723582
H           -7.11877260547431        2.52882053293857        7.66126335977976
O            7.12682847734454        5.97954677804824        9.67299328078213
H            7.29362621024044        6.56941173994333        8.93137192193473
H            6.28853079208848        5.54120259595943        9.49746098904295
O           -3.81684840121374       -2.29566676114821        7.85610153568038
H           -3.43458655965644       -1.70826191520660        7.19655130948392
H           -3.74504409029706       -1.84834210701623        8.70486923991201
O           -2.24054934036577       10.85844695942351        7.70757758037780
H           -2.80904268902974       10.23302600675972        7.24801625235987
H           -1.56367017695281       11.13575446662637        7.08159592848188
O            9.56688395347527       -2.77575663179842        5.04772578793020
H           10.39136413404421       -2.28843600088514        5.13616494223426
H            8.95075299002080       -2.17559691455715        4.59863397742544
O           -8.10186399400214       -1.44738292186157        4.24829314470531
H           -7.62171587356082       -1.36243057432241        5.07817464651266
H           -8.42805826129127       -0.57121253828471        4.02052366532102
O            8.32710863995707       10.19413902920869        6.12401386450862
H            9.26023698050101       10.36063474595007        6.28860758652708
H            8.17273093270444       10.35859831221357        5.18873088576899
O            5.91452103029892       -6.82278267979067        4.10147776847764
H            6.81031585602464       -6.47731640058295        4.16119151152128
H            5.43225320907836       -6.20671586916966        3.52550718488951
O           -5.70550047720463        6.52575969063745        5.53006420901381
H           -6.07118446143717        6.18505626616860        4.70755937498604
H           -4.76028699811669        6.34794303222654        5.51081592075970
O           14.18326721021936        5.98733777962769        2.76463943019270
H           13.54621915836385        5.50554171166679        3.30198070818659
H           13.68521979704411        6.43120367939813        2.07120184145549
O           -2.76250533469109       -6.23212807654870        4.22601591213041
H           -2.22356318699962       -6.96491690592254        4.53882816270963
H           -3.27491026990808       -5.91845945547847        4.97740421838917
O            0.15376344212574       13.59351252991316        1.57393941116720
H            0.84616274208101       12.94113397402666        1.71810516850329
H            0.49602301301541       14.43544564184623        1.88880833087078
O            9.85196596544271       -5.18135141760480        0.39747215155919
H           10.38699271838289       -5.30714405236108        1.18694978869052
H            9.16121826906815       -4.55071194132801        0.62407742843456
O           -8.03705001316230        1.90892713652885       -0.15879530491124
H           -7.17531994618986        1.53982172112168       -0.37671361207972
H           -7.96384112511808        2.86428322976658       -0.24736938594713
O            9.62258709867378        8.74271351406614        0.93589198250915
H            9.43787486455109        9.33705262510771        0.20229331766376
H            9.48230169961122        7.84812551334341        0.61113593966337
O            2.94109415899705       -9.60769732003217        0.45878933700423
H            3.18279437265697       -9.65101276238602        1.38921571645427
H            3.72621147384424       -9.83928494178918       -0.04660247645705
O           -4.90663352676592       11.22158183092453        0.95030894578450
H           -4.07308607809991       11.70245776621422        0.93119675577831
H           -5.40031678377148       11.54661667376468        1.70918802566834
O           12.84540284491223       -2.13673043765245       -2.80201130798022
H           13.44112317450686       -1.64679516634242       -2.22674586447943
H           11.96455044203140       -2.07484045737116       -2.41920294276432
O           -5.26174941536374       -7.05546746139807       -0.66216848491240
H           -4.76158228285654       -6.99749114226117        0.15801837723054
H           -4.77441206687081       -6.54971726542061       -1.32014607384460
O            2.11594949297490       16.08892413463875       -4.77547896136884
H            2.86533206622313       15.58146516596618       -5.10293946668009
H            1.62813099706481       16.39547729746761       -5.54605222595218
O            6.13607570903023       -6.01480943562764       -2.85502568620002
H            6.45632448889330       -6.81899967407993       -2.43437582119539
H            6.86076247230820       -5.66815689744489       -3.38417117624858
O           -8.33562982026451        6.58988375778492       -3.49136379488645
H           -8.25644209919361        6.83440566903203       -4.41849826293530
H           -7.82276476295402        7.22970114646603       -2.98773569818082
O           11.49969345280866        7.64686946870364       -3.77093584020815
H           12.18661177064996        6.98099561160742       -3.66807818443356
H           10.66366223836521        7.17665591014546       -3.85146252987593
O           -0.49741439833782       -6.77829910574383       -6.20678284310446
H            0.13326028686412       -6.08638388732111       -5.94664447906610
H           -0.19454937941723       -7.09994521379900       -7.06107264874876
O           -2.11515438349377       12.78082705159916       -6.90541033265091
H           -2.18309181304699       11.93248502507474       -7.35449901500675
H           -1.21183559674197       12.85033956347495       -6.58092950393838
O            9.68770023578023       -0.79759748185734       -7.53164862754944
H           10.44097211631966       -1.33965100108424       -7.27835718358514
H            8.90038673133340       -1.33872371174290       -7.41609763278230
O           -5.66486967592588        1.13980467591158       -9.22759363360128
H           -5.19879178389779        1.98095708253323       -9.27100405721231
H           -5.99742879529777        1.05008631998520       -8.32900473633221
O            6.48495501915636        7.08252361387565       -8.56468069262358
H            5.80851749134404        6.50851553461899       -8.19258251383515
H            7.33451810032867        6.67583109138951       -8.36902841703422
O            6.42964009401164       -5.37532756175548       -8.10103699468655
H            5.73241573368670       -4.76117793218611       -7.84993739369862
H            6.07973501282467       -5.91926749954491       -8.81315752328051
O           -4.21693688392342        8.10945142107047       -9.12617860876760
H           -4.76461441473974        7.48012562191794       -9.60473262202174
H           -3.87560271344312        7.65032185627556       -8.35218969912069
O            6.13540979884164        2.32000239997286      -10.24491203176447
H            6.01353739280120        1.51577141838614      -10.75868310409330
H            6.96155402711928        2.22197089103645       -9.76158479134260
O           -1.07645872296624       -0.55327494982176      -12.10351565967662
H           -0.30040238383773       -0.13447819409135      -11.71860953258775
H           -1.82883073356478       -0.31481042340907      -11.55300384534304
O            3.38848525650532        5.67002125996898      -13.18813402072635
H            3.92836090025766        5.79310063382826      -12.40073318909727
H            3.53787659215496        4.76942794300082      -13.49218789058228
O            8.20447686337662        3.31322550008960       14.41312962060614
H            7.88033284996883        2.41035806676124       14.49144944557009
H            7.69091800219768        3.73593756008622       13.71718750593311
O            1.32899470725861       -2.48055226194030       11.87021599483795
H            1.44514434399645       -1.97056677619646       11.06179537727683
H            0.64124652573573       -2.04374382876498       12.38160402493937
O            5.13919447493497       10.82632750422439       11.43011642022664
H            5.14992020955330        9.86673802707667       11.50509160326899
H            4.22192990323545       11.08743982798806       11.30211176203966
O            6.67418365259426       -1.75733257692091       12.63834494975191
H            6.47324025949457       -2.69152138896972       12.52689018604368
H            5.90550062161544       -1.26866737861122       12.32649655823302
O           -6.10679440217953        4.63167336452922       12.65768010033125
H           -6.42837910794948        3.72760487216040       12.58240608259318
H           -6.24884724870472        5.05251212575786       11.80369887145774
O           10.55261253037404        9.70943940630347       11.09863048428967
H           10.22512268557504        8.99020328101050       11.64795722006553
H            9.79986209557632       10.27654059339271       10.90374999871740
O            0.23182690272988       -6.27909042220736        8.46151757818331
H            0.68414156369139       -6.34954162871757        9.30765006432060
H           -0.23009777686456       -5.43450127522730        8.45974995452680
O           -0.51028710953681       14.82247176054858       10.58423321652353
H           -0.63300250655289       13.91182388049189       10.87089066293618
H           -1.03501512168939       14.93672712545371        9.78549162069121
O           13.48806404420321        1.34259693089794        5.85946777287072
H           14.19759074695754        1.90056800910253        6.19268537764153
H           12.71252018845209        1.52365747217058        6.39988186170831
O           -8.64429817321785       -2.88937342416109        9.83788909398403
H           -8.15895202302826       -3.47012837512627        9.24323210976140
H           -8.31616944565709       -1.99669404767308        9.68881310457712
O            7.14380189707344       14.84761426811430        7.96617251818850
H            7.02523789660904       14.05909615493537        8.50573696118158
H            7.96188702281238       14.73167040923213        7.47293514226351
O            5.30817468504803       -8.74102955525412        8.88126063878050
H            6.12302179107981       -8.67078370697390        8.37403173910070
H            4.58264657476794       -8.58923577629638        8.26717135334258
O          -10.10160431431049        8.97642661400298        6.75344682344046
H           -9.63190533383606        8.37983339912272        7.34500668276431
H           -9.46625745580388        9.27424466072415        6.09464563909900
O           12.48788450135963        5.95647843374917        8.00204916519083
H           12.80518103376703        6.85299585977417        8.14592456923013
H           11.85185227284665        5.76785546034574        8.69953343467262
O           -6.73607399370318       -9.37971652476148        4.78827678166451
H           -5.91164447133800       -9.86699204205819        4.88489345975507
H           -6.69045680198805       -8.91621140713093        3.94581925378940
O            2.44411890741282       13.51520942496370        6.16593933278971
H            3.26326866167909       13.57843695242983        5.66491687661614
H            2.56327500256661       14.03499238582002        6.96672425917711
O           11.92157550165756       -7.62619313586315        4.98399943635626
H           12.77657021743172       -7.29226538617602        5.27243268900180
H           11.24967026667543       -7.10917593423145        5.43981400956255
O          -10.23004162069122        3.83479122736466        4.43212198835814
H          -10.56392679533491        3.53263963195399        3.58192704737556
H          -10.56142087402754        4.72882558393010        4.56148105828865
O           11.42877040792170       13.33590471358346        3.33100056514627
H           11.63621811162963       12.51725692310790        2.86904697388185
H           11.45792558173417       14.04020614236815        2.67623860594295
O           -2.25824335034312      -11.00950231515759        2.11797520129321
H           -1.42191315799758      -10.93733096642505        1.64731256382556
H           -2.94501077309601      -11.11320561187727        1.45173849668512
O           -4.79921996359554       16.13525166626880        2.62321338093125
H           -3.84528884497562       16.05647798557047        2.52033810381182
H           -5.16668243671456       16.24781966837818        1.74080741210494
O           15.54807891641816        1.33278465104074        0.61023168738899
H           15.23618741658581        1.42227446964657        1.51634154101965
H           15.43412422213308        2.19094068489239        0.18960631030354
O           -8.94304574565126       -3.12170521248313       -1.81859990897156
H           -8.79320726162174       -4.01218553263870       -1.48594383817999
H           -9.26207213507149       -2.59383035455467       -1.07971997637675
O            4.81810310590580       14.97579737447609        0.08453362460699
H            5.61338650850883       14.44379936130799       -0.01686141848009
H            4.65726705836413       15.40568290956148       -0.76134769816558
O            8.39714940391331      -10.14152192573902        0.34290240207085
H            9.26108279197169       -9.81868572762037        0.06889579323916
H            8.24332860457462       -9.80902862120131        1.23313899375114
O          -11.88120799423888        6.54271159631260        0.30959907585919
H          -11.75127623018250        5.86930239495938       -0.36555926419986
H          -11.42801040496503        7.33519632815351        0.00562879126636
O           12.12418110211540       12.70478276722356       -1.85600173394800
H           12.63413691724368       11.90342806870709       -2.01095591018751
H           11.37489987823788       12.68139045480596       -2.45955522924823
O           -1.85817724549315      -10.62421455838184       -3.04061225415092
H           -1.08401375993888      -10.71563952864553       -3.60450887482030
H           -2.41591656455257       -9.94738676629354       -3.43675207084448
O           -2.70829750084234       15.49423270070874       -2.14975892729713
H           -2.70785542144456       14.59590546531539       -2.49489445684372
H           -1.79948508219221       15.80834801449569       -2.18505202253934
O           13.61543021668532       -3.88697510722056       -4.92541560282200
H           13.92381879224642       -4.64381400126497       -4.41796291568343
H           13.34381500041767       -3.22406623840613       -4.27092187821303
O           -9.46529577285015        1.41118477838245       -5.17677559742279
H           -9.38978461783056        0.63594706618935       -4.61174736800239
H           -9.55720757846012        2.17394845501080       -4.59700009067796
O            7.17404929859840       13.74965959953645       -4.42114073406603
H            6.95884385008836       12.81735221328203       -4.52534447885056
H            7.47762836116642       14.06623900829695       -5.27730244867077
O            3.61147683772108       -9.68896201612977       -5.45820852574464
H            3.96013470494621       -8.92780218580370       -5.93292080888980
H            3.22767006607836       -9.35630662534982       -4.64061756930984
O           -6.93562714003437       11.25792563760033       -5.42411604775477
H           -6.61006114386987       10.99307467805059       -6.29033210022904
H           -6.60031406783688       12.14420126346091       -5.25722140765849
O           13.16722108025907        2.68693891070579       -5.24036484038990
H           13.56906187343209        1.82008370611223       -5.35418666116799
H           12.25569142360847        2.61608180303484       -5.54120843827501
O           -3.73667806397155       -2.71804298279055       -4.01164687824743
H           -3.49492861363128       -3.38100507538813       -4.66613426496450
H           -4.69464821098632       -2.74818489484478       -3.92396529685840
O            2.43229583677707       13.87170066478638       -9.46268488517940
H            3.29240386897647       13.78883162290599       -9.88563979705789
H            1.77511524885731       13.57358038321125      -10.09957693515341
O           11.65735267817734       -5.23709188790950       -9.85004263658761
H           12.42501388847741       -5.06756387856198       -9.29523875577599
H           10.95364486418799       -5.54423289535457       -9.26941710989753
O           -8.85777210815145        5.15450384822245       -9.35489299809092
H           -9.02745078898546        4.50937873740293      -10.04812184988079
H           -8.92574921036044        4.68807861808013       -8.51564857089021
O            8.00163456385685       11.96253671431282       -9.37325626690745
H            8.54752710953836       11.29063463606239       -8.95290418124126
H            7.35494445880883       11.49906789484283       -9.91481860449203
O            1.99059373749598       -4.94164505753948      -10.78361146848411
H            1.64828241466164       -5.04253932785224      -11.67685344030460
H            1.46817000575858       -4.25430223690471      -10.35810528481638
O           -1.42989652260529       10.88433544349403      -12.48827803562216
H           -1.74899772547125       10.00202073142471      -12.70186584447580
H           -2.11005778059917       11.30579051789995      -11.95350004695930
O            8.14035578578193       -2.30400140557202      -12.41933696945962
H            7.99997578056945       -3.19796523392350      -12.09201251677328
H            8.99872802094379       -2.01829536520965      -12.09115612597747
O           -1.20650004928633       -2.39434176696202      -14.29113405639708
H           -1.11186197798598       -1.81245953086014      -13.52007178030391
H           -1.89305140202141       -1.99794998043499      -14.83581442795732
O            4.10818867689741       10.79252418728249      -13.30501411260272
H            4.65677065110953       10.17586494954554      -13.79902358054941
H            3.20142185189984       10.47644350484287      -13.37121100618963
O            3.78424403544290        0.22671858724590      -14.84768496098955
H            4.60274627848138       -0.27648092024293      -14.79370044064530
H            3.06924496292610       -0.40900563345197      -14.95216522670127
