%chk=maltonate_original_Reduced_Structure.chk
#p B3LYP empiricaldispersion=gd3 scrf=(cpcm,solvent=water) scf=(maxcycles=500,xqc,maxconventional=1000) 6-31+G(2df,p)

Reduced_Structure

-1 1
 C                 -0.39355043    0.37525641   -0.39257917
 C                  0.79622286    0.94493083   -0.48994289
 C                  2.04699941    0.13052476   -0.33553232
 O                  3.11283785    0.78520278   -0.47439130
 C                  1.89417165   -1.35418347   -0.04731829
 C                  0.62503354   -1.85400302    0.06977763
 N                 -0.48223466   -1.06317381   -0.09212537
 C                 -1.81595256   -1.64009197    0.04244080
 O                  0.97059429    2.13979410   -0.71394645
 H                  2.75238560   -1.98472675    0.06468880
 H                  0.49415802   -2.89271740    0.28989116
 H                 -2.15127719   -1.98869687   -0.91021836
 H                 -1.77490533   -2.45196050    0.72984285
 H                 -2.49460034   -0.89388480    0.40537057
 Fe                 2.72459719    2.57777578   -0.54713424
 C                  3.84370474    2.63768933    3.18251889
 C                  3.66709981    2.70628663    1.85496980
 C                  4.84419578    2.79158545    0.95201992
 O                  4.53532247    2.88359958   -0.27145766
 C                  6.24135084    2.76401438    1.58703120
 C                  6.33139302    2.68625796    2.96007932
 N                  5.21496864    2.63856873    3.75363708
 C                  5.35031742    2.58543782    5.22618031
 O                  2.56523275    2.70115221    1.27276980
 H                  7.12712524    2.80421589    0.97697418
 H                  7.29724867    2.66457682    3.42113812
 H                  5.39448143    1.56845742    5.54867971
 H                  6.24258786    3.09032256    5.52705104
 H                  4.50362163    3.06306342    5.67118350
 C                  1.19428243    5.60438361   -2.43004521
 C                  1.87654964    4.54285325   -1.96989871
 C                  2.24809736    3.46076538   -2.91353132
 O                  2.83545577    2.50023661   -2.37947905
 C                  1.88035808    3.59562196   -4.38300814
 C                  1.15542321    4.68795051   -4.76191557
 N                  0.78984978    5.65236010   -3.86386538
 C                 -0.03761572    6.79106136   -4.31189313
 O                  2.24238936    4.33313900   -0.79006736
 H                  2.18398219    2.85768454   -5.09406417
 H                  0.86273237    4.78818671   -5.78681157
 H                  0.59888692    7.57534259   -4.66199246
 H                 -0.68663230    6.47619944   -5.10212464
 H                 -0.62435932    7.14830432   -3.48836018
 C                  2.61791287    2.55682785    4.09698563
 H                  1.80211079    3.06647450    3.63368780
 H                  2.35730671    1.53334375    4.25534966
 H                  2.84070631    3.01879701    5.03546216
 C                 -1.65610342    1.23522076   -0.59649480
 H                 -1.96203204    1.65044429    0.34046978
 H                 -1.43506657    2.02662560   -1.28299426
 H                 -2.44595750    0.63147306   -0.99240347
 C                  0.82851035    6.74248437   -1.47702362
 H                 -0.10710766    6.53022992   -1.00593317
 H                  1.59104944    6.83350667   -0.73604867
 H                  0.75069312    7.65741254   -2.02641446



