352
 energy: -607.643741357275 gnorm: 0.003337684529 xtb: 6.6.0 (conda-forge)
C           -3.40352008269339       -3.70022003019768       -0.57317010387132
C           -2.76172009248172       -4.22224006620648        0.55146024505649
C           -1.63638005119999       -3.55910012781922        1.09077081914416
C           -1.14435006636529       -2.36758113035842        0.52720948055971
C           -1.81056998608032       -1.82777013603616       -0.64600963647708
C           -2.92447002487010       -2.50941997437405       -1.16501001605511
O           -1.30673002548498       -0.73452001928924       -1.15103998704132
O           -0.10726999178247       -1.70982030332790        0.96469016414338
H           -4.27613999349310       -4.20449000418988       -0.99396999811101
H           -3.12568998057640       -5.14105003953859        1.01661001112019
H           -1.12455001232588       -3.95425000676078        1.96816036795970
H           -3.41524000359872       -2.08574001617244       -2.04093998693414
Fe           0.09705001666110       -0.02306000092508       -0.00345997373848
C            5.17322000703656       -0.59969000252308       -0.60790999331649
C            5.20226999866936        0.06098000069784        0.62024998419127
C            3.98946999932779        0.44766000101556        1.23958000350658
C            2.74245999879143        0.17872999948071        0.64801999736877
C            2.71211000265307       -0.50231000112221       -0.63654999657521
C            3.93149999693694       -0.88036999810857       -1.22707000313007
O            1.53551999885351       -0.71723999869496       -1.15159000688452
O            1.58879000593191        0.49500999894333        1.16398999850190
H            6.10359000134352       -0.90322999939550       -1.09333000301678
H            6.15559000168007        0.28387999849216        1.10497000060593
H            3.99522000027599        0.96504000052880        2.19901999863261
H            3.89273999910289       -1.39563999598872       -2.18689000199875
C           -2.13919000015831        4.54127000184798       -0.53786998906604
C           -2.86181000164200        4.10295000158538        0.57339999921217
C           -2.56819000017734        2.84663000224952        1.15030000751041
C           -1.55921000241965        2.01707999560042        0.63117000257033
C           -0.81049000115907        2.46982999881769       -0.52899999705837
C           -1.11789999770406        3.72786000098437       -1.07839000194865
O            0.12400999800261        1.67429000028730       -0.96959999981316
O           -1.22500000064281        0.85621999726925        1.12527000285337
H           -2.35908999946419        5.51049999978665       -0.99093000027134
H           -3.65524999628120        4.72371000111730        0.99538000240505
H           -3.12374000041169        2.48750000004244        2.01630000109978
H           -0.54483000091952        4.05617000003955       -1.94529999722222
O            3.03055156975235        0.19304592727136        9.34850315548373
H            3.15974790982356        0.38079650434295        8.41445433636827
H            2.12053185226010       -0.09992483106031        9.45565518720438
O           -4.65661259806390       -1.83758409228827        5.22845545795740
H           -4.81773464760976       -2.68738527596917        4.80798451804446
H           -4.05683090035033       -1.35247989179110        4.65350672262422
O           -0.06255053061608        2.04709296907529        5.62368493936115
H            0.08700861386222        1.61501291600010        4.74674389924411
H           -0.67557461504640        1.46107910268758        6.07592132464088
O            0.92134000714681       -3.28571495021001        6.36353387142469
H            1.39859436335825       -2.93523439838233        5.60539666505045
H           -0.00867569343116       -3.09422233306457        6.21078523389383
O           -7.07739921461070        4.01530829148962        4.63508198180979
H           -7.23305924626012        3.46711305027888        3.86027122824393
H           -6.90534479556114        4.90792190437659        4.32006239428678
O            3.44217492920814        5.54403512034022        4.59625856821577
H            3.02568820157452        5.03767370560538        3.89318735706621
H            2.88592414075827        5.44540832194331        5.37651529896892
O            1.45239637600604       -7.83459552032383        4.15722098283929
H            1.97058425541326       -7.12699976919329        3.76214382121452
H            0.63032140319665       -7.89210105831682        3.66090968011336
O            0.16123769854660        0.65554935513440        3.35950818471225
H           -0.54565732314002        0.69068607884604        2.67533962819214
H            0.91137669264435        0.56344956222370        2.72825422924412
O            2.02229528594359       -3.09923326603247        0.77247377573557
H            1.18020076408798       -2.55238371006465        0.96844650978990
H            2.44751293846442       -2.51635105183209        0.13109909919939
O           -7.25450516647181        0.31530183785444        0.40149677491362
H           -6.66754270614743       -0.16351083956899        0.99480869178366
H           -6.71114164594068        0.63511340320604       -0.32330388490786
O            5.43019017523594        5.42464870767315       -0.59604823210969
H            5.79156088825570        4.97664059017992        0.17567728990962
H            4.70094196748690        4.88560526959544       -0.91190772295413
O            5.64335305618238       -7.91805579553712        0.22894678942699
H            6.34250527610742       -7.66001285442514       -0.37948686133316
H            4.96708338372016       -7.23564981038586        0.18624038880973
O           -2.91095587017196        0.30307932879535       -3.11578353655368
H           -1.84959663469906       -0.39330726445870       -1.90534998864388
H           -2.77042825661011        1.21348592269282       -2.84115035099602
O            1.45759765513132        2.75338147485353       -3.17911804021268
H            0.58877190959640        2.04149082468575       -1.75209351172064
H            1.94899720623570        1.92758538728793       -3.22489845074181
O            0.70535676031893       -5.21544148215812       -0.23695389761902
H            1.28253262412400       -4.48421665145095        0.09573636851579
H           -0.18654389915231       -4.85821352148317       -0.12906705421461
O            1.63473198241655        8.74950795936511       -2.43954179151322
H            1.70849861118476        7.87091216423157       -2.82106165255466
H            1.30185638993735        8.63954677137940       -1.54333432954121
O            5.11174294765777       -6.19952105707466       -4.75179591971843
H            4.87870489092964       -5.44437614948176       -4.20502330672534
H            4.29555884268014       -6.52268204572170       -5.14747631894092
O           -7.87721726850393        1.00006511111946       -5.70677620434463
H           -7.22018571986456        1.01687897097342       -5.00656635250644
H           -7.40082087818582        0.87829398211281       -6.53445850091768
O            1.95278063585696        3.74561588722818       -5.37750886065887
H            2.82943596198469        4.11204672521554       -5.23351285611330
H            1.69367770553076        3.29439961175088       -4.37116406677273
O            0.25154918611471       -4.02959068702421       -5.36128811717775
H            0.61217487986178       -3.72055176016161       -4.52483934654408
H           -0.59659473437602       -3.59048403091927       -5.46856805014446
O           -3.19353329728295        5.82300064229377       -6.03010858089760
H           -3.95706388666957        5.52112789366726       -5.53026514713158
H           -2.44053362163248        5.31146981630624       -5.72566016051797
O            4.29729410170228       -0.60793537916152       -7.06024035823527
H            4.74763877255252        0.04516575367314       -6.51725756826716
H            3.42194408882737       -0.72912997842345       -6.68182499337003
O           -2.62823224568629        0.51457392667706       -5.55798798770244
H           -1.70772086515059        0.77675255243787       -5.61874048594210
H           -2.77642820733333        0.39000220912960       -4.45017982598859
O            4.88183273530392        0.63876909619981       11.44187346041244
H            5.36974950603057       -0.19007398330228       11.46639491059049
H            4.23163503274981        0.54625487477085       10.72726920813117
O           -2.52818447468981       -0.36246982279855       10.13771441878764
H           -2.77175551959116       -0.98609122619469        9.44680342198041
H           -3.21749947174157        0.30833945497729       10.16566526430994
O            1.40077340261174        5.09790834734264        9.88168616303344
H            2.24820631722372        4.74951591221528       10.17725000092025
H            0.84211597354259        4.34051018707613        9.68392255777895
O            5.38577366444081       -4.58648372450248        8.63193307204981
H            5.31382698356127       -3.73097681893321        8.19798606303141
H            4.85688708103403       -5.20549671182586        8.11937208518628
O           -5.85714348645242        3.10031598992941        7.05540697535207
H           -5.04267047106140        2.76214864617473        6.67250651900410
H           -6.38677657001233        3.41869426490738        6.30730639339375
O            6.29419889630867        5.68182669944775        4.79147496662423
H            6.45741083184041        6.01000056302030        5.68194757043069
H            5.32976548744205        5.64088125763454        4.69183272362729
O            1.75293696772906       -8.59134227872957        6.88883561712925
H            1.69993631572273       -8.40686805940000        5.93761604274457
H            1.20088611681440       -7.92959242632883        7.31635378831489
O           -2.04791917836615        6.82440951227002        5.68588472262273
H           -1.93347273255274        6.20552645230387        4.95909263868216
H           -1.75404091808013        6.37437655027710        6.48408920289951
O            7.42617114335434        0.53179148602167        6.35294976943851
H            7.48008026377604       -0.28510059738544        5.84750062171286
H            6.94272043361930        1.16477097587140        5.81442605966184
O           -9.83011742706731       -0.59189584506215        6.85262741912465
H           -8.88554193769289       -0.52163932079727        6.68519572536199
H          -10.27424630025656       -0.03675199441949        6.20365542837683
O            4.76810956046610       10.16549164563228        2.34029673291555
H            4.85056915611006       10.01963007211838        3.28831545692923
H            4.56637667366964        9.31412404756066        1.94105075160118
O            4.74330145616066      -12.00921961901133        3.90445199473665
H            4.82388048472805      -11.07109024165633        3.70591328240945
H            3.90627823758827      -12.12741346824084        4.36445641515211
O           -8.90433729688390        6.09299093841183        0.07802414725867
H           -7.97352455056896        6.22778716523840       -0.12055767749633
H           -9.16590140491604        6.79203654904740        0.68717024183471
O           10.44282500491092        3.08621874720179        2.21217737615061
H           10.75438259449847        3.91120641576371        1.82578404287072
H            9.51715583104193        3.21413783931866        2.43899229635278
O           -4.52487875194874       -9.74189793266835        0.72397161955070
H           -3.56890980495957       -9.82934564560748        0.65394948734432
H           -4.82448385448292       -9.28830946510418       -0.06967371368000
O           -0.36540744631768       10.73069995189032        2.37604228756182
H            0.00484124272726        9.96021673920566        2.81704631573543
H            0.30042637469150       11.42512541106769        2.41440466179014
O            6.28543996568632       -4.25192806336072        3.68292406180230
H            6.85853850783094       -3.93926286993133        2.97708742461100
H            5.40187858388392       -3.92696147097411        3.48766720620444
O          -12.00927181912699        1.84050516565216        1.83900165718536
H          -11.80918919437563        0.97944005084936        1.45886512796446
H          -11.25923467259031        2.41311576943004        1.65007097632739
O            9.60358203173222        8.38339998742016        1.28601921563203
H            9.13195918739539        8.30732891475003        2.12133936099214
H            8.94016777203400        8.49350150605432        0.59824097678848
O            1.04063642382794      -10.67859731629442       -0.25440914091806
H            1.92879863794517      -10.78480418367243        0.10070429471609
H            0.97467714871040       -9.77588035101411       -0.57870816807911
O           -5.61025991813663        9.15618781659263        2.78832976354659
H           -4.72874071291913        9.02292031138644        2.42880099319973
H           -5.49990232565001        9.47300414277069        3.69110785275685
O           11.33022280794250       -2.28262230159643        3.73560361757688
H           11.54902418489391       -2.28892088046227        4.67348707347623
H           11.36224371614414       -1.36630205339418        3.44466316554926
O           -5.60566641325254       -4.14698288127965       -6.14333457458754
H           -5.13000869496819       -4.68732869212757       -5.50533944158586
H           -5.27237204907567       -3.24984884027888       -6.05589168798294
O            3.76603558479556       13.52256153807880       -4.47708024455454
H            3.24946687820810       12.71636335889016       -4.38354757968375
H            3.21081040277632       14.15701878477366       -4.94152421696501
O            4.76866311721374      -11.38769468668268       -4.06516810767412
H            5.34585862244441      -11.04188960813006       -4.75271627417908
H            5.19077624949773      -11.19556641235279       -3.22179748499305
O          -12.02587704641513        3.21161373273526       -3.27580424221942
H          -12.67361288996206        2.57837445271308       -2.95023279541712
H          -11.16534835244799        2.91552984693027       -2.96399469145996
O            9.99038088874033        4.56158804456271       -2.91569625000435
H            9.39238489944531        3.86679527353924       -2.62646305497076
H            9.52055044739989        5.39593312094940       -2.81830993200857
O           -2.38738741054347       -8.27181375025328       -3.94523276844951
H           -1.87406972718512       -8.25533935114767       -4.75908829209897
H           -2.04877230180226       -7.56725673676213       -3.38519834522921
O            0.32311040271017       10.02456567262075       -7.06606909877347
H            1.16148107743669        9.55866665470262       -7.13706292359882
H           -0.33133599966514        9.38253789914882       -6.77680120830857
O            7.68061373988986       -3.94587703787904       -9.15261534167739
H            7.44440112356594       -3.89765399070904       -8.22167849140735
H            6.99867562493760       -3.47193611222908       -9.63901661823168
O          -10.87121346068509       -3.28892845733128       -7.51233061971700
H          -10.82146618185769       -3.42138693927708       -8.46437034450934
H          -10.02103797751330       -2.93269943245081       -7.23711963406920
O            0.19813548773316        6.06631856118050      -10.26479221769097
H           -0.30549191311314        5.50263316866049      -10.86088053848261
H            0.30040454935518        5.58457034527376       -9.43959573571311
O            2.47212030260565       -5.17345375517632       -9.91763675061434
H            2.40325063732661       -4.35805552595408       -9.41259230579498
H            1.95119752094720       -5.83625759273887       -9.45364650539580
O           -4.35296667083902        3.00111128081620      -10.27669478582190
H           -4.04431325976349        2.67783222896267       -9.42582839895340
H           -4.65003259881981        3.90742567307147      -10.14507828530392
O            0.78558249451646        0.89653845449460      -10.65111506378091
H            1.65545699354075        1.26284866605012      -10.46477629021181
H            0.31066360288487        0.85635514700657       -9.81635215396004
O            4.30241622576391        2.21451995902868       13.71930354769119
H            3.84703170187393        1.56243519416549       14.26156399512450
H            4.55252203367903        1.74981517611140       12.90280066732173
O            1.24511549556426       -2.38607753300451       13.95176809764393
H            1.96495371557776       -2.73498087946281       13.41614545994284
H            0.56616544937187       -2.07464441008121       13.34516939826973
O            3.08284545063792        7.64515476389161       14.40787608538491
H            3.38024744562517        6.73111686014608       14.46179889075610
H            2.39940595845376        7.67764557261228       13.73187727462208
O            5.76664126701727       -4.89384252960420       11.43876174347324
H            6.24722087756099       -5.72385019718804       11.51146693963697
H            5.62132990822342       -4.75381397708690       10.48885410509581
O          -10.24090083790396        4.37494608689723        9.67419716674526
H          -10.12849056926264        3.54248310693671        9.20454051645028
H           -9.39271227294244        4.82872181354202        9.64509228843585
O            6.94287254299836        5.50584756485049       10.35081212781366
H            6.95806632102290        4.58719331017150       10.06418398573409
H            6.75899113890035        5.50010135784831       11.29576979364355
O            2.02880931874834      -12.38234978507461       10.70707059928521
H            2.88550398559674      -12.06984759683091       10.39883224786870
H            1.36097040540406      -11.89860100837651       10.21110319743584
O           -6.63801541131146        8.45780527940230        8.29534466188754
H           -6.09311709414080        7.72555069500476        7.99047569484078
H           -6.05772696944999        9.21869239762352        8.39545050563871
O           10.65877066502427       -2.57380792284803        9.30944771105204
H           10.63586621378233       -1.61707223685485        9.20819094214105
H            9.74849959546987       -2.86863912895042        9.41535174075533
O          -14.39122729080010       -3.15150432487655        7.19770112472514
H          -13.48372239713515       -3.46884163098250        7.15651912703354
H          -14.36828861727044       -2.21392740388375        6.98088864123151
O            4.01570475176815        9.58733351270249        7.96851965197631
H            4.77078055248076        9.27837683198647        8.47930154693744
H            3.24770178185066        9.09924533656894        8.28200896169299
O            6.85662665334005      -10.22754862148093        8.47249976866981
H            7.21895060436214      -10.74378229846978        7.74535287454403
H            6.15531579296326       -9.67959576533230        8.10620874639894
O          -11.03992459474637        7.03256456280407        5.12807804503572
H          -10.55188868602530        7.33719636758245        5.89940346125671
H          -11.34600034997175        6.14128976346668        5.32412484940481
O           12.78228869475755        1.90829084932602        6.69803827013052
H           13.17179329742515        2.23582221507456        5.88137093792742
H           11.83941236146127        2.09566627273599        6.65508538231572
O           -8.43852029684849       -9.33690205407290        4.81631719067698
H           -7.73337505128839       -9.33774494638816        4.16145255120164
H           -8.93920088208565       -8.52498755826483        4.68867852292624
O           -2.91176951858193       12.22888875001770        6.66990488023614
H           -2.35159563974172       11.44941559795033        6.60085263832646
H           -2.82064425664988       12.71459946185373        5.84421670149090
O            9.41806905127385       -8.31294624440433        4.30728068388834
H            9.55776375334889       -7.59672785857803        4.93404155578544
H            8.52031331605511       -8.21859520078475        3.97490410219949
O          -13.80655585654232        2.29116394776623        4.02746332618635
H          -13.17638815504998        2.11052966165511        3.31227206905447
H          -14.54001532912154        2.76102999512595        3.61773690915820
O           14.14058681974223       11.59683930853359        2.27689387647237
H           14.63376796041483       11.26570757060936        1.51950337013438
H           13.30719166349368       11.11618743211869        2.29879161309426
O           -0.09203863924535      -15.46404671658111        1.58033048995629
H            0.76238929557630      -15.13383797483119        1.28493657340312
H           -0.76410144010050      -14.95715164617168        1.11380137927159
O          -10.63310394485531       11.48232672739244        1.85891900903577
H          -11.11385363452743       10.83381870615228        2.38333724304173
H           -9.69712177628116       11.27927284065731        1.95085668700661
O           15.60239432661198       -4.27935304386453        0.61160613066935
H           15.12245484940793       -4.32512237386742       -0.22152080182331
H           14.94565927012132       -4.16536453149420        1.30620693188832
O           -8.82587150405126       -4.64589012433180        2.02423255768974
H           -7.91812064467007       -4.55746884970019        1.71939315719150
H           -9.34430327982417       -3.97718153339786        1.56550900082948
O            2.78875915097092       15.07654416700038        0.67681631991941
H            3.45586335769486       14.38296848500110        0.68676919565130
H            2.46557233604440       15.14209557491123       -0.22744818269126
O            8.70148639576793      -11.89656668632864       -0.04195560205002
H            9.13488837847713      -11.29051316580815        0.56701253730050
H            7.90956989369962      -12.21773255140251        0.40088716496915
O          -14.33411214925454        6.52990309271877        0.61362935796135
H          -13.78113625907970        6.76219495936628        1.36618415904820
H          -13.76123968099431        6.11016818106292       -0.03544766061259
O           14.15236071635999        8.14927556199381       -1.94181392211305
H           14.07969983177678        8.19487059088767       -2.90088147702350
H           13.28795620752223        7.89683591275320       -1.60294930631342
O           -2.99586808385866      -13.39313912339673       -2.88190470359798
H           -2.24374820393923      -12.80019649373598       -2.78901421961513
H           -3.78023987187224      -12.84011441648929       -2.94997503175492
O           -1.24687327085063       13.12982314188299       -2.70671519754496
H           -1.13444462824689       12.66378163120490       -1.87249801541788
H           -1.29347129030791       12.46181576488955       -3.39738789082357
O           10.79309463291648       -6.10974394240400       -0.26127820606011
H           10.50810925391312       -5.57667974598645        0.48748150814875
H           10.98749248241381       -6.98935691923384        0.07931325090289
O          -11.23608605190513       -1.85961770504122       -2.25028747057623
H          -11.71408159671417       -2.32197509291006       -2.94589301179612
H          -10.35066655912114       -1.68454711491856       -2.58364315788847
O            7.20700342696234        9.42361552386392       -3.71006176175030
H            6.35069320298023        9.09813824436698       -3.41714801118162
H            7.18384169009409       10.38366874405012       -3.63621801039064
O            3.02219146235517      -13.63103146112326       -4.45280499323811
H            3.63830509682946      -12.88723926942673       -4.35645882541235
H            2.28821563811385      -13.44479396337579       -3.85913895238961
O           -8.52088876627338        6.49464159256265       -5.56046367573077
H           -8.77948827190744        5.64570600962125       -5.93285161969519
H           -9.01549890245916        6.60164992482626       -4.74363567778092
O           14.58052264918687        3.27478520221487       -4.92432189661529
H           14.50765477647978        3.69265451675186       -4.05971455005502
H           13.73361794632392        2.85652934996402       -5.10670141096247
O           -8.27896796433856       -8.34179213627188       -7.82100154477158
H           -7.32711961571794       -8.28545454250033       -7.69242885581861
H           -8.65217621044388       -7.50930624611830       -7.51479285458698
O           -0.09343543324739       15.04868225415119       -8.24288136516716
H            0.19877111050169       14.39073406965591       -8.88177000119629
H           -0.61652744063825       14.58438026433067       -7.58187564357703
O            6.44433731917326       -9.03200089070126       -8.87236277400412
H            7.10459468431514       -8.55863112638859       -8.35672733765634
H            5.92652798550507       -8.36853238718226       -9.33898774754664
O          -11.86461959094010        2.17785420186747       -8.80634359806175
H          -11.53900488704790        1.27454712602821       -8.74026878801560
H          -11.73928825094866        2.58345539525823       -7.94277035241691
O           11.61080277870354        7.75226807362473       -6.90200919598517
H           11.71757849661159        6.81865023115681       -6.69397916128839
H           10.78701818855805        8.03974644308845       -6.49600466385134
O            0.99470504330605      -10.22158935020640       -7.92535058655786
H            1.95093986186445      -10.27349947626332       -7.82729500235064
H            0.63742116183898      -11.05977708120885       -7.61472566260656
O           -4.77895158839821        8.70166472017756      -10.01809234581443
H           -3.87700061623539        8.53719579101006       -9.72628510589077
H           -5.35500810457606        8.50034369959223       -9.27384389243084
O           10.10984801676148       -3.37486993452105      -14.12607897068390
H           10.04973019705779       -3.63339136546858      -13.20099961825277
H            9.27169514732331       -2.96158422841712      -14.35547725893881
O           -7.78376612313824       -0.90259625314025      -10.92783692677173
H           -6.87764503315877       -1.20535087058527      -11.03980234940752
H           -7.81892643658555        0.00471766176803      -11.24677709323408
O            0.63479847711152       10.93743871251117      -12.16424727612305
H            1.31470179126129       10.39379004872611      -11.75481728588991
H           -0.21379045577535       10.58918410689317      -11.87272970398325
O            4.67439068892582       -2.22880095720096      -13.64690173819124
H            4.48760196076202       -3.17131615656193      -13.58744541391748
H            4.02803096956911       -1.77981399078568      -13.09389935258747
O           -2.94233313009950       -1.15829701793599      -13.69976570144145
H           -2.14934883844141       -1.58931270038799      -13.36647264853042
H           -2.92836582573864       -0.25388208197496      -13.37135980521161
