55
deferipronate_red_lowspin.log	Energy: -1690754.4615230
C          0.68317        3.93420        0.76402
C          0.34206        2.68797        0.22197
C         -0.50781        2.64855       -0.98363
O         -0.82141        1.52340       -1.46342
C         -0.91803        3.89615       -1.53144
C         -0.53904        5.08182       -0.94727
N          0.23701        5.11456        0.16429
C          0.54842        6.39584        0.77694
O          0.72610        1.56782        0.71874
H         -1.53618        3.90748       -2.42232
H         -0.84251        6.04479       -1.34184
H          1.62610        6.50845        0.93159
H          0.20894        7.20109        0.12017
H          0.05089        6.50352        1.74921
Fe        -0.00083       -0.01109       -0.36252
C         -3.76778       -1.36876        0.76390
C         -2.50950       -1.05773        0.23184
C         -2.04680       -1.78689       -0.96409
O         -0.91779       -1.49498       -1.44895
C         -2.91633       -2.77753       -1.49870
C         -4.13966       -3.02728       -0.92316
N         -4.56700       -2.34786        0.16912
C         -5.84924       -2.68972        0.76234
O         -1.73087       -0.16408        0.72472
H         -2.60946       -3.33472       -2.37628
H         -4.81976       -3.77654       -1.31083
H         -6.47436       -1.79945        0.88921
H         -6.37371       -3.39068        0.10614
H         -5.72079       -3.16053        1.74628
C          3.08467       -2.55783        0.76272
C          2.17158       -1.64174        0.22423
C          2.55859       -0.88140       -0.97933
O          1.73038       -0.06078       -1.46470
C          3.85094       -1.12992       -1.51966
C          4.69707       -2.04068       -0.93205
N          4.33816       -2.73941        0.17331
C          5.29446       -3.65091        0.78250
O          1.00659       -1.42485        0.71858
H          4.16870       -0.59194       -2.40601
H          5.68940       -2.24202       -1.31829
H          4.88491       -4.66269        0.86242
H          6.19453       -3.69152        0.16693
H          5.57572       -3.31693        1.78775
C         -4.28100       -0.63984        1.96977
H         -3.48140        0.01843        2.31116
H         -5.16085       -0.01655        1.75419
H         -4.55213       -1.30956        2.79528
C          1.53535        4.01619        1.99577
H          1.03294        4.52084        2.83301
H          1.75653        2.99202        2.29995
H          2.49140        4.53545        1.82960
C          2.72322       -3.36325        1.97490
H          3.38755       -3.17927        2.82940
H          1.71307       -3.07123        2.26309
H          2.72496       -4.44678        1.78956
