46
kojate_red_lowspin.log	Energy: -1795719.0687638
C          2.25228        3.24586        0.78585
C          3.38779        3.73184        0.20816
O          3.93551        3.16956       -0.86916
C          3.34611        2.06861       -1.45289
C          2.19875        1.47643       -0.96126
C          1.60262        2.09275        0.24226
O          0.56258        1.57634        0.71745
O          1.61585        0.44770       -1.45181
C          4.16745        4.93458        0.67633
O          4.01153        5.20592        2.06342
H          1.83018        3.74348        1.65063
H          3.89398        1.73132       -2.32038
H          5.22433        4.78493        0.40914
H          3.82384        5.83960        0.16035
H          4.10131        4.37371        2.54234
Fe        -0.00268        0.00227       -0.36813
C         -3.93925        0.32281        0.78865
C         -4.93089        1.05849        0.21017
O         -4.72072        1.81421       -0.86753
C         -3.47262        1.85917       -1.45108
C         -2.38334        1.16627       -0.95895
C         -2.61584        0.34177        0.24513
O         -1.64601       -0.29643        0.72084
O         -1.20097        1.18023       -1.44934
C         -6.36285        1.12607        0.67770
O         -6.51914        0.85608        2.06543
H         -4.15682       -0.29195        1.65376
H         -3.45701        2.50187       -2.31892
H         -6.76626        2.11419        0.40910
H         -6.97110        0.37224        0.16215
H         -5.84578        1.35382        2.54412
C          1.69040       -3.56685        0.78597
C          1.54733       -4.79376        0.20852
O          0.78511       -4.98996       -0.86725
C          0.12105       -3.93166       -1.44977
C          0.17788       -2.64163       -0.95839
C          1.01122       -2.43032        0.24351
O          1.08055       -1.27110        0.71847
O         -0.42648       -1.62479       -1.44780
C          2.20559       -6.06770        0.67491
O          2.52401       -6.06649        2.06081
H          2.33381       -3.44748        1.64935
H         -0.44552       -4.23977       -2.31608
H          1.54961       -6.91079        0.41068
H          3.15976       -6.21931        0.15516
H          1.75875       -5.73148        2.54270
