%chk=kojate_solvated_2_Oxidized_Structure.chk
#p B3LYP empiricaldispersion=gd3 scrf=(cpcm,solvent=water) scf=(maxcycles=500,xqc,maxconventional=1000) 6-31+G(2df,p)

Oxidized_Structure

0 2
C            2.25227999922810        3.24586000143141        0.78585000040297
C            3.38779000076060        3.73184000117109        0.20815999776154
O            3.93551000035446        3.16955999915479       -0.86915999960454
C            3.34611000022366        2.06860999782003       -1.45289000072036
C            2.19875000027377        1.47643000047345       -0.96126000033918
C            1.60262000021491        2.09275000002428        0.24226000101925
O            0.56258000136003        1.57634000000853        0.71745000004011
O            1.61585000057146        0.44770000303729       -1.45181000027298
C            4.16745000011311        4.93457999994918        0.67633000046654
O            4.01152999961032        5.20591999688838        2.06342000356892
H            1.83017999918726        3.74348000033825        1.65062999848973
H            3.89398000041195        1.73132000045168       -2.32038000005495
H            5.22433000021598        4.78493000017352        0.40913999963670
H            3.82383999983220        5.83960000126999        0.16034999883237
H            4.10130999992183        4.37370999913404        2.54233999882356
Fe          -0.00268000006887        0.00226999974041       -0.36812999947785
C           -3.93924999951556        0.32281000036925        0.78865000028971
C           -4.93089000059141        1.05848999786974        0.21017000233739
O           -4.72072000029468        1.81420999851037       -0.86753000367104
C           -3.47261999890640        1.85917000228264       -1.45107999840367
C           -2.38334000133310        1.16626999980856       -0.95895000031702
C           -2.61584000022093        0.34177000012762        0.24513000145688
O           -1.64600999995224       -0.29642999955655        0.72083999967897
O           -1.20096999964092        1.18022999997336       -1.44933999971501
C           -6.36285000028179        1.12606999990278        0.67769999895964
O           -6.51914000111021        0.85607999999052        2.06542999959557
H           -4.15681999994229       -0.29194999986658        1.65375999997313
H           -3.45700999996124        2.50186999851104       -2.31892000076254
H           -6.76626000009968        2.11419000014708        0.40909999988188
H           -6.97110000014695        0.37223999872345        0.16214999964782
H           -5.84577999983666        1.35381999920841        2.54412000187906
C            1.69039999858715       -3.56684999983478        0.78597000489386
C            1.54733000102883       -4.79376000014507        0.20851999993036
O            0.78511000160401       -4.98995999910162       -0.86725000217442
C            0.12105000013811       -3.93166000261666       -1.44977000021463
C            0.17788000114988       -2.64162999950266       -0.95838999965819
C            1.01122000044587       -2.43031999993438        0.24350999944601
O            1.08054999995069       -1.27110000026026        0.71847000008058
O           -0.42648000020510       -1.62478999888096       -1.44779999968203
C            2.20559000163301       -6.06769999918772        0.67490999972662
O            2.52400999904327       -6.06648999859626        2.06081000065956
H            2.33380999999698       -3.44748000002510        1.64935000039068
H           -0.44552000018354       -4.23977000038011       -2.31608000047241
H            1.54960999991977       -6.91079000125316        0.41068000015550
H            3.15976000007457       -6.21930999999165        0.15516000139492
H            1.75874999727468       -5.73148000089957        2.54269999976250
O           -0.45401939670332       -1.02782557781276        5.49843033796439
H           -0.85810244906714       -1.62767270141581        4.86786438837310
H           -0.02183083667132       -0.35022808725422        4.96894627727486
O           -3.57317515675803       -3.81785069082579        9.24145943846948
H           -3.02865994340376       -3.09565087122850        8.91104944817700
H           -4.39627383696987       -3.42991804396938        9.54973348946210
O            1.86440431159321        4.16728960980746        7.26321974047483
H            1.62394914914623        4.80825249835907        6.58350164939973
H            1.13677857527830        3.54484944329366        7.33061091567968
O            3.21389056516213       -4.55636839551301        7.65667245867970
H            3.87462775972861       -4.01196004655148        7.21681483062784
H            2.37103468619679       -4.09979512798243        7.56875896792788
O           -5.59698327994410        0.69737653440727        7.69768019565274
H           -4.89372800068901        1.16079416622310        7.23253922227339
H           -6.23048834640483        0.40903098974273        7.03314080073412
O            4.30156694620389        2.62759153934309        3.16249023278978
H            3.57188812395337        2.03147137466709        2.96071983807478
H            4.67333779302576        2.34727199565746        4.00626220491436
O           -2.40818863026778       -6.07974334793651        4.67897037678464
H           -1.96524510743326       -6.19355005261151        5.52276135544744
H           -3.26998904853135       -5.69569009378799        4.86682327901652
O           -2.62300633801718        4.24866774078993        4.52447901550475
H           -2.10726480011765        3.66073351708246        3.96203612145264
H           -3.11313712075650        4.83652127547906        3.94222424890108
O            6.91726387137720       -1.88582403731586        4.27453988323247
H            7.72337434260628       -2.21146835007030        3.86262712493666
H            6.19696454163989       -2.06420515898226        3.66099603892953
O           -9.36448304927890       -3.81560444612879        2.82043171793636
H           -8.69696316077011       -4.27788623444213        2.30370726134985
H           -9.24755968331303       -2.87604323043417        2.64780865791515
O            3.12840505509356        7.73431096104822        3.09826967555328
H            3.36341418181394        6.87115771669712        2.72222617673403
H            3.79231622401697        7.91455849600773        3.77068929101776
O            4.41051184607863       -7.90817239027214        3.31360806262330
H            4.39204047045282       -7.59297072113782        4.22314122969606
H            3.83516753654170       -7.31070392604592        2.81217819916659
O           -7.46360691339662        4.47290545310661        0.02016817704690
H           -6.98630996387115        5.09623438596247       -0.53695076248589
H           -8.39995305836072        4.67492530888832       -0.07376916963876
O            8.68302062889872        0.76823890326726        0.08370980095715
H            8.97399429938791        1.63370047361370       -0.21806040249158
H            7.77806975927536        0.86881852721343        0.39571886933567
O           -4.78227365904984       -5.44032377838694       -0.04186544092252
H           -4.14229199597944       -6.08803226058297        0.26769060591215
H           -4.38484689968761       -4.57330300510614        0.09161892075998
O           -1.58236278029374        7.16919188899653       -0.02571604809716
H           -1.56054274442547        6.22033765931077       -0.18779781640768
H           -0.80999358992729        7.37917462712479        0.50881515165753
O            4.96475173080867       -5.31635416796966       -1.46268655820761
H            5.65728589458943       -4.73657992186227       -1.12906969684755
H            4.88157484530041       -5.13464139507964       -2.40351030580707
O           -7.95406299531204       -1.01241854544382       -1.58902159547891
H           -7.72031597567098       -1.94136689342412       -1.68650816165464
H           -8.05590285087185       -0.65721444127406       -2.47797847548981
O            5.04692378335065        3.13255252705784       -6.75250277712770
H            4.71175218020630        3.86616516025311       -6.22473410433848
H            4.28639275569272        2.59693102002701       -7.00252190346383
O            1.45890719303412       -6.89248403860479       -6.17840695676929
H            1.67524581539375       -7.02789465170739       -5.24999959198697
H            1.30779905872550       -5.94844934631390       -6.29487625219576
O           -4.81996954724530        6.67102473723148       -4.63598322822896
H           -4.45454498688156        5.97003627452055       -5.18478558529666
H           -4.12950874872348        6.93008180556703       -4.01744804543100
O            7.11188998205045       -1.71526255752512       -4.84613147555744
H            7.16216983776925       -1.11485178857460       -4.09736427292552
H            6.60875173027557       -1.26306170760589       -5.52999503247713
O           -4.44810725674044       -2.63118938800356       -4.99339121914128
H           -4.33633593780625       -3.46024634194622       -4.51737192792124
H           -3.90874028510947       -1.97677086809326       -4.53731570576166
O            0.11096015655224        4.35614057878075       -5.15259748737921
H            0.06893940701864        3.39473879785348       -5.14680540179204
H            0.14120177831174        4.62777159811016       -4.22852331596507
O            1.39898091653312       -1.16134725430598       -6.11448754336595
H            1.92431928440641       -1.02430720793262       -5.31926995691651
H            0.48089962673147       -1.15350756758515       -5.82502972680259
O 2.788633683395525 -0.1432995130338686 12.22970144952547
H 3.688633683395525 -0.1432995130338686 12.22970144952547
H 2.495622344384084 0.7076672050055166 12.22970144952547
O -3.6388523000095847 -3.4243341602136015 11.544491484695865
H -2.738852300009585 -3.4243341602136015 11.544491484695865
H -3.9318636390210258 -2.5733674421742165 11.544491484695865
O 0.48271913332371313 6.009450463622919 10.859281519866261
H 1.3827191333237132 6.009450463622919 10.859281519866261
H 0.18970779431227214 6.860417181662304 10.859281519866261
O 4.320280851503148 -5.853022513287846 10.174071555036656
H 5.220280851503149 -5.853022513287846 10.174071555036656
H 4.027269512491707 -5.002055795248461 10.174071555036656
O -7.962036033159911 1.2549445884615102 9.488861590207051
H -7.06203603315991 1.2549445884615102 9.488861590207051
H -8.25504737217135 2.1059113065008956 9.488861590207051
O 7.307060969247085 4.541276794617402 8.803651625377446
H 8.207060969247085 4.541276794617402 8.803651625377446
H 7.014049630235644 5.392243512656787 8.803651625377446
O -2.47836785800772 -9.14971108026229 8.118441660547843
H -1.57836785800772 -9.14971108026229 8.118441660547843
H -2.771379197019161 -8.298744362222903 8.118441660547843
O -4.5928489917075765 8.589706794593376 7.433231695718237
H -3.6928489917075766 8.589706794593376 7.433231695718237
H -4.885860330719018 9.440673512632761 7.433231695718237
O 9.6025897607243 -3.6710600712456056 6.748021730888633
H 10.5025897607243 -3.6710600712456056 6.748021730888633
H 9.309578421712859 -2.8200933532062207 6.748021730888633
O -9.91528216386593 -4.212548979632559 6.062811766059029
H -9.01528216386593 -4.212548979632559 6.062811766059029
H -10.208293502877371 -3.361582261593174 6.062811766059029
O 4.600849803852436 9.810804246748122 5.377601801229425
H 5.500849803852437 9.810804246748122 5.377601801229425
H 4.307838464840995 10.661770964787507 5.377601801229425
O 3.3139841503238867 -10.891347657245218 4.69239183639982
H 4.213984150323887 -10.891347657245218 4.69239183639982
H 3.0209728113124457 -10.040380939205832 4.69239183639982
O -9.999676308715035 5.618535679791857 4.007181871570214
H -9.099676308715035 5.618535679791857 4.007181871570214
H -10.292687647726476 6.469502397831242 4.007181871570214
O 11.344195915694524 2.3632779354848656 3.321971906740611
H 12.244195915694524 2.3632779354848656 3.321971906740611
H 11.051184576683083 3.2142446535242506 3.321971906740611
O -6.851642670682096 -9.807613909097649 2.6367619419110055
H -5.951642670682095 -9.807613909097649 2.6367619419110055
H -7.144654009693537 -8.956647191058263 2.6367619419110055
O -1.588154418637637 11.670529906320255 1.9515519770814027
H -0.688154418637637 11.670529906320255 1.9515519770814027
H -1.8811657576490781 12.52149662435964 1.9515519770814027
O 9.096800307765136 -7.858348736116204 1.2663420122517977
H 9.996800307765136 -7.858348736116204 1.2663420122517977
H 8.803788968753695 -7.007382018076819 1.2663420122517977
O -12.038191608290342 -0.6387487721557911 0.5811320474221937
H -11.138191608290342 -0.6387487721557911 0.5811320474221937
H -12.331202947301783 0.2122179458835941 0.5811320474221937
O 8.42855167344452 8.301213552760013 -0.10407791740741013
H 9.32855167344452 8.301213552760013 -0.10407791740741013
H 8.13554033443308 9.152180270799398 -0.10407791740741013
O -0.6075175945186332 -12.043191346888923 -0.7892878822370156
H 0.29248240548136684 -12.043191346888923 -0.7892878822370156
H -0.9005289335300741 -11.192224628849537 -0.7892878822370156
O -7.626379375748188 8.927038733660488 -1.4744978470666208
H -6.726379375748188 8.927038733660488 -1.4744978470666208
H -7.919390714759629 9.778005451699874 -1.4744978470666208
O 11.512223426496671 -1.6999567463377345 -2.1597078118962263
H 12.412223426496672 -1.6999567463377345 -2.1597078118962263
H 11.21921208748523 -0.8489900282983494 -2.1597078118962263
O -9.490003234564895 -6.706358627048792 -2.84491777672583
H -8.590003234564895 -6.706358627048792 -2.84491777672583
H -9.783014573576336 -5.855391909009407 -2.84491777672583
O 2.4150601160136898 10.846398114838266 -3.5301277415554337
H 3.3150601160136897 10.846398114838266 -3.5301277415554337
H 2.1220487770022487 11.697364832877652 -3.5301277415554337
O 5.406806943852096 -9.67881973015337 -4.215337706385037
H 6.306806943852096 -9.67881973015337 -4.215337706385037
H 5.1137956048406545 -8.827853012113984 -4.215337706385037
O -10.217601589280475 3.098127518928983 -4.900547671214642
H -9.317601589280475 3.098127518928983 -4.900547671214642
H -10.510612928291916 3.949094236968368 -4.900547671214642
O 9.278338045330907 4.169982204138165 -5.585757636044246
H 10.178338045330907 4.169982204138165 -5.585757636044246
H 8.985326706319466 5.02094892217755 -5.585757636044246
O -3.85632158742074 -9.220970034006148 -6.270967600873852
H -2.95632158742074 -9.220970034006148 -6.270967600873852
H -4.149332926432181 -8.370003315966763 -6.270967600873852
O -3.2137165432381334 8.632462010301484 -6.956177565703457
H -2.3137165432381335 8.632462010301484 -6.956177565703457
H -3.5067278822495744 9.48342872834087 -6.956177565703457
O 7.668699236073236 -4.203845602464978 -7.641387530533061
H 8.568699236073236 -4.203845602464978 -7.641387530533061
H 7.375687897061795 -3.352878884425593 -7.641387530533061
O -7.819600399980402 -2.1894283115452016 -8.326597495362666
H -6.919600399980402 -2.1894283115452016 -8.326597495362666
H -8.112611738991843 -1.3384615935058164 -8.326597495362666
O 3.8339107415418088 5.908360426699769 -9.011807460192271
H 4.733910741541809 5.908360426699769 -9.011807460192271
H 3.5408994025303677 6.759327144739154 -9.011807460192271
O 0.9888778099200559 -6.230458819287937 -9.697017425021876
H 1.8888778099200558 -6.230458819287937 -9.697017425021876
H 0.6958664709086149 -5.379492101248552 -9.697017425021876
O -3.8975224757437785 2.8308178930339687 -10.382227389851481
H -2.9975224757437786 2.8308178930339687 -10.382227389851481
H -4.190533814755219 3.681784611073354 -10.382227389851481
O 2.7789168860650797 0.09167169924437965 -11.067437354681084
H 3.6789168860650796 0.09167169924437965 -11.067437354681084
H 2.4859055470536386 0.9426384172837649 -11.067437354681084


