%chk=kojate_solvated_2_optimized_Oxidized_Structure.chk
#p B3LYP empiricaldispersion=gd3 scrf=(cpcm,solvent=water) scf=(maxcycles=500,xqc,maxconventional=1000) 6-31+G(2df,p)

Oxidized_Structure

0 2
C            2.25227999119939        3.24585997262884        0.78584998574374
C            3.38779001814342        3.73184000500557        0.20815996833743
O            3.93551001082530        3.16955999141082       -0.86916000122795
C            3.34611002708684        2.06860999488769       -1.45289005727816
C            2.19874999218410        1.47643002111350       -0.96125998302237
C            1.60262001017038        2.09274999047953        0.24225997837996
O            0.56257999639773        1.57634000231553        0.71744999965311
O            1.61585001149080        0.44769999014778       -1.45181001099057
C            4.16744998157822        4.93458001234171        0.67633002648125
O            4.01153000041825        5.20591999427753        2.06342000103697
H            1.83018000249313        3.74347999823353        1.65062999484783
H            3.89398001120132        1.73132000592953       -2.32037994418119
H            5.22433000314301        4.78493000069812        0.40913999124777
H            3.82384000077185        5.83960001387682        0.16035000157270
H            4.10130999900896        4.37370999844755        2.54233998903470
Fe          -0.00268000301364        0.00226999634892       -0.36812999886453
C           -3.93924999725054        0.32280999892068        0.78865001421356
C           -4.93088999982282        1.05849000258593        0.21017002842779
O           -4.72072001800696        1.81420999783679       -0.86753000799045
C           -3.47261998352889        1.85917000416376       -1.45107999193445
C           -2.38334001151076        1.16627001183727       -0.95894999240751
C           -2.61583999831336        0.34177000863768        0.24513000431695
O           -1.64600999614604       -0.29643000168298        0.72084000200714
O           -1.20097000351832        1.18023000276654       -1.44933999473421
C           -6.36285000674759        1.12606999311522        0.67770002571254
O           -6.51914001050660        0.85607999584444        2.06543004511382
H           -4.15681999241336       -0.29195000651689        1.65376001078794
H           -3.45701000222148        2.50187000444055       -2.31892000462524
H           -6.76626000107490        2.11419000075094        0.40909999168154
H           -6.97109999542374        0.37223999685569        0.16215000620996
H           -5.84577999681767        1.35382001307388        2.54412000316527
C            1.69039999579059       -3.56684999968086        0.78597000335081
C            1.54733000382665       -4.79376000247394        0.20852000214904
O            0.78511000443018       -4.98996001310495       -0.86725000814095
C            0.12104999925210       -3.93166001564730       -1.44977000343395
C            0.17788000659983       -2.64163001014089       -0.95838999843549
C            1.01121999846838       -2.43031999716113        0.24351000679919
O            1.08054999880590       -1.27110000044578        0.71847000067120
O           -0.42647999948635       -1.62478999564843       -1.44780000195306
C            2.20559000118788       -6.06769999891978        0.67491001094982
O            2.52400999534969       -6.06648999834202        2.06081000978087
H            2.33381000110566       -3.44747999964451        1.64934999893534
H           -0.44551999200236       -4.23976999953035       -2.31608000050642
H            1.54961000145218       -6.91079000029828        0.41068000094589
H            3.15976000051901       -6.21931000020950        0.15516000029394
H            1.75874999556137       -5.73147999752572        2.54269999907700
O           -0.60170401372251        0.65251367074930        3.08161220513411
H           -1.00719437596816       -0.01659361343067        2.51007835362745
H           -0.09237532922978        1.14957884444178        2.42166069934941
O           -2.41479056020346       -5.06757751263238        9.34422067047979
H           -2.52291043606180       -4.25249758324338        8.84329089831751
H           -2.84690960908445       -4.91019768942498       10.19924724712149
O            0.19659413321715        3.44985247961452        7.50505493808175
H            0.34309116693271        4.18026229089445        6.89565015457343
H           -0.37461034706638        2.82005310969037        7.05478776147363
O            1.44777869952401       -2.36685582355641        6.40723237255121
H            1.78008034983611       -1.58472907486410        5.95654398435049
H            0.69650243544383       -2.68067664138238        5.89353468716029
O           -4.77064754565172       -0.68795585116614        6.69733511236014
H           -3.90997163658462       -0.50007056456187        6.30966932631824
H           -5.18498341853226       -1.36935989779496        6.15966143266324
O            4.19520328168612        2.74889174790754        3.38971988465818
H            3.82762584407844        1.96406354184145        2.97308189227777
H            3.95369531025184        2.71062772077777        4.32108235488239
O           -2.55169839585296       -5.51517639783771        4.10084424685890
H           -2.36971949915219       -6.26194130533816        4.67864779200150
H           -3.44556044211297       -5.21931992686048        4.29745469617397
O           -3.58001442769098        5.14015137976094        4.02772116080037
H           -2.83924741554284        4.72538710517048        3.57468833119333
H           -4.09954903696220        5.59624575484362        3.35926219395791
O            6.94034005584809       -0.62152000759500        5.74601097265483
H            7.85495972801835       -0.86789143445078        5.58074825902708
H            6.40560873903953       -1.40659438186732        5.58923811160922
O           -8.53739067682172       -4.26553250944677        3.09249648526273
H           -8.77721475825915       -4.80655567665294        2.33369612061455
H           -8.12832308459878       -3.46440242330661        2.74988414104708
O            2.04283216382672        6.87796305896849        3.29662631812919
H            2.72287060349958        6.37285921396824        2.82232138657901
H            2.48126522835293        7.20364382434009        4.09828891891632
O            4.16885733634001       -7.53205992342421        3.82851989359757
H            4.72923098122029       -6.82411942885827        4.15981196060749
H            3.63713732041360       -7.13682475862768        3.11882528008341
O           -7.79473928997583        4.37014032181912        0.50821414385421
H           -7.54739446330461        5.22787975109948        0.14844126668827
H           -8.62856763256134        4.48867208841424        0.97315244288991
O            8.53761711387576        1.19939420384235        0.69442807489175
H            8.32192622688442        1.38581904456258       -0.22512875496097
H            7.83751404006001        0.63737909136720        1.04509676461832
O           -5.05917571758419       -5.19851824093955       -0.47247786182148
H           -4.45917782434146       -5.95205879921413       -0.48501662544798
H           -4.55485157824123       -4.44133411447776       -0.15804428486261
O           -1.69851868137701        7.19581366023834       -0.46749924956344
H           -1.47172075127622        6.26362630347267       -0.54283961956227
H           -0.88493046068404        7.66478099515776       -0.26079276035387
O            5.19717553430451       -6.30508563929160       -0.94343033439708
H            5.92070966009099       -5.74345573409438       -0.64764758031426
H            5.51503901197999       -6.79458542015147       -1.70849860936378
O           -8.42068596284058       -1.01864380965505       -1.18692141095520
H           -8.11770059922481       -1.78189077423091       -1.68872724814305
H           -9.30089340162075       -0.80319371440623       -1.51065597255048
O            4.21451176313483        1.53404732419496       -7.21756713962919
H            3.66287925478888        2.25557166687514       -6.90069428687539
H            3.81818249858074        0.71939104718770       -6.89275629438022
O            2.20880428130668       -8.60324547186156       -4.65706808134128
H            1.69887596970806       -8.52353262841274       -3.84442202773837
H            2.09011014766075       -7.78172292205671       -5.14417803221267
O           -5.00666649826223        6.74301472008779       -5.02824315444047
H           -4.99053357471404        6.06633810956086       -5.71243362018336
H           -4.30260375030596        6.53125717253944       -4.40694721807693
O            4.69849741084357       -3.25780221678403       -4.47641897632505
H            4.77820087513240       -2.58305528507976       -3.79459070126264
H            3.75867790576989       -3.43742272800179       -4.57693189084476
O           -4.57610028573307       -1.99682329749292       -5.13876106088229
H           -4.28449765021413       -2.17291234144499       -4.23782701349797
H           -4.07967403560648       -1.23072209499125       -5.44242506741671
O           -0.15820788086324        4.51302315770151       -5.37501125590489
H           -0.55970305879406        3.66788448973957       -5.60152950443322
H            0.18135734563184        4.41851101710731       -4.47966966038233
O            0.47176233967241       -0.45621430012100       -3.78064389929697
H            1.00531130269229        0.05742786998104       -3.15000594991725
H           -0.09680062531084       -0.91712907354825       -3.14024006454577
O            0.32224738013460       -0.73853016116099       11.35703355430997
H            0.61966583504575       -1.61530721771311       11.09312463477952
H            0.41373022243794       -0.17047604377331       10.58547270010413
O           -3.82345304223897       -4.23157382173327       11.67848101263047
H           -3.52905282828704       -3.42706121539570       12.11817073566013
H           -4.78236270263141       -4.18149935300302       11.61315582926960
O            1.48601344240618        7.32328631763513       10.67720792730844
H            1.98301036506257        6.49883701441461       10.66707720599273
H            0.55563225786907        7.09115444792586       10.59388896714627
O            3.15160358727901       -4.15052421016976        7.83944076501576
H            2.63976985270990       -4.96240624497270        7.89632667118716
H            2.58845953832321       -3.50786172902618        7.37630109724156
O           -5.70672922618683       -0.20610888479265        9.36154644827714
H           -5.34017267318487       -0.40359505646346        8.48446616801107
H           -6.32817339579341        0.51639333677622        9.22960886835249
O            5.35402539243246        3.55634334237484        9.08730616870209
H            6.13920657352661        3.24322098829372        8.62779042421770
H            4.67786145556468        2.87234495579468        8.98450477954435
O           -2.46893323040738      -10.15469179261437        7.38000461583376
H           -1.51992938968623      -10.04427652785193        7.26100777068968
H           -2.74728973283928       -9.49933999781419        8.02795133952654
O           -3.87520775823528        7.16748501041320        8.74971050788926
H           -3.54661308637393        6.29440078932415        8.51335158970940
H           -3.70441452297062        7.74321923680915        7.99729981395000
O            8.36266108491495       -4.65460904130830        8.87884716388222
H            8.02726183149768       -3.82810517852162        9.24267658379432
H            7.59461203254454       -5.18464303394958        8.64355370419549
O           -7.86850103991371       -5.33949835391205        5.64132680843082
H           -8.06963923159937       -4.99214123338489        4.75656931703612
H           -8.64913291908337       -5.16646814503280        6.17713220770084
O            3.37358401161896        7.70493461746744        5.72780944661580
H            3.92797243178327        7.08552250251410        6.21400303056304
H            2.96839359621195        8.28881143292969        6.37587900739155
O            2.74031570997160       -9.17330261482267        5.59862491959907
H            3.06587818994688      -10.05456234674645        5.39242649209877
H            3.21899041580199       -8.57015480326515        5.00088604291385
O           -8.23312355592944        4.18403374008676        6.64292625372737
H           -7.59060655801100        3.73252358791983        6.08433170372460
H           -7.76870655067313        4.90788040953502        7.07357717418286
O            8.83255347589886        4.59423378945049        4.71810579503985
H            8.81867492236318        3.63970233948684        4.83468777860601
H            8.49561648647986        4.76992049208086        3.83345328682864
O           -5.36450359850618       -9.47944920254152        2.63106337429997
H           -5.00927503008357       -9.91864425440628        3.41038464075894
H           -5.98557101868816       -8.81382237428295        2.94445073313821
O           -2.45376269801750       10.12317284964087        4.05668055736958
H           -1.68251022526453        9.55159766263944        3.98174817620501
H           -2.91500647671561       10.08436554189696        3.21312331037404
O            8.94223202577070       -4.87456026853939        3.44587438694366
H            9.21997944259782       -5.41329329730061        4.19508800749767
H            9.23039383217268       -5.32752450435931        2.64694083259859
O          -11.68104980331936        1.32196716450016        3.04085801948825
H          -11.05143260405326        0.81696305818059        2.51667195401308
H          -11.19489219276086        1.68319407172710        3.78834616960340
O            7.36697854719979        9.53471904215226        2.27879952042118
H            8.13235622033892        9.29884961045448        2.81072228240344
H            6.62296543281839        9.02877825300031        2.61926528730157
O           -0.01732458304196       -8.81878576580382        0.70925771778227
H            0.25996408807787       -9.61716606863171        1.17041915305455
H           -0.95335976420637       -8.69926497396589        0.89875865370343
O           -6.65964418438853        9.71825702636425       -1.06004581060965
H           -5.75053934784396        9.41148840333536       -0.98917674573821
H           -6.84738958559007        9.82270054783550       -1.99832085582303
O            9.81096837419902       -3.59199170224313       -1.96395766585734
H            9.48734888337245       -3.49952884140032       -2.86574018250807
H           10.05829376313566       -2.71244808962034       -1.66239191929703
O           -9.30838701388371       -7.88103960776109       -1.24526774900983
H           -8.55644145398524       -8.36906878792114       -0.89496692021190
H           -8.96959803172254       -7.30579798565545       -1.93851004881829
O            3.00484460497208       10.34120450883741       -0.78766917389195
H            3.95344632051279       10.38112202398787       -0.94593478092724
H            2.88019281932778       10.34420199058669        0.16695514590972
O            4.66543164258709      -11.51556446694203       -0.14309704649394
H            4.71391812361358      -10.80918863155794        0.50930789682598
H            4.15943779256572      -11.17443786627034       -0.88743543688954
O           -8.73982233956548        3.22627179966977       -4.55509117715386
H           -8.02544212904431        2.86508788064448       -4.02035280901021
H           -8.93413066872380        4.10240131363402       -4.20834607186929
O            8.81534611667226        0.86787361740327       -4.89710907108478
H            8.39287045079261        0.18748183132387       -5.43125322183492
H            8.51595728719239        1.71567656461102       -5.23933940420681
O           -3.31545308601997       -7.64076005150295       -4.88421090368685
H           -2.61854794187164       -7.82343352269645       -5.51991035027411
H           -3.55899896477096       -6.71516309519213       -4.98827528954989
O           -1.64075258522727        8.94002852372252       -8.38289962424570
H           -1.37782258864949        8.51469768860842       -7.56048288872654
H           -2.58132271357200        9.13070874508022       -8.31217954729401
O            6.48070842054610       -3.97497977413498       -6.57666428390241
H            6.24671163142397       -4.89438217331819       -6.73390507737402
H            5.90707658921977       -3.67434827883210       -5.85230103066872
O           -9.96112049043634       -1.99568281801600       -6.09831990657138
H           -9.07836011246275       -2.34658433670477       -6.25305278267324
H           -9.88860038071147       -1.03595922467946       -6.11949367186256
O            1.81877431325339        5.65392531303748      -10.45871333713398
H            1.81141005713675        5.70539174687160       -9.49757657018854
H            1.49641560057488        6.49865182693430      -10.78747089102601
O           -0.11990039341396       -4.35554177063209       -7.57892405337082
H            0.00218721874438       -3.79870071478874       -8.35370547352401
H           -0.35037987182519       -3.76893821053739       -6.85084227006067
O           -3.30868775468072        3.73648762853571       -9.47283062135719
H           -2.87148268681681        2.94224944632765       -9.79457034208057
H           -2.70590987035512        4.47060083426932       -9.62831791712505
O            1.02255390173664        0.08243372099118      -10.93530380470640
H            1.85283383392848       -0.40026534961979      -10.96019644917898
H            1.24572530568204        1.01420429418207      -10.85617716549586


