31
Properties=species:S:1:pos:R:3 Fe_CN6_minus2_LS.log=T Energy:=T -1430311.8675669=T pbc="F F F"
Fe       0.00792591      -0.00425159       0.00650126
C       -1.38723409      -0.23977159       1.37736126
C        0.87447591       1.37562841       1.11486126
C        1.11211591      -1.39779159       0.85563126
C        1.38769591       0.23065841      -1.38010874
C       -0.88697409      -1.36626159      -1.10041874
C       -1.08477409       1.38925841      -0.85479874
N       -2.23362409      -0.37893159       2.18269126
N        1.38111591       2.21157841       1.76951126
N        1.78356591      -2.22601159       1.35317126
N        2.20634591       0.37252841      -2.21317874
N       -1.44101409      -2.17179159      -1.75496874
N       -1.74111409       2.21667841      -1.37388874
H       -3.37343998      -0.56945431       3.28927195
O       -3.14753095       0.35083133       3.22189648
H       -3.09096785       1.48765639       3.36108481
H        2.07926892       3.33814384       2.66585534
O        1.94089651       3.67241769       1.78743968
H        1.90625083       4.32875631       0.84777841
H        2.68638247      -3.35565595       2.03787986
O        2.50744620      -2.66758132       2.66798708
H        2.46264413      -2.01855972       3.61228986
H        3.32415939       0.56410680      -3.34180213
O        3.10261119      -0.35674395      -3.26797612
H        3.04713995      -1.49407603      -3.40341132
H       -2.17780334      -3.27399056      -2.65068020
O       -2.03177332      -3.62030514      -1.77818869
H       -1.99521032      -4.28706499      -0.84596637
H       -2.63065249       3.34621377      -2.07593668
O       -2.45434792       2.64961881      -2.69736419
H       -2.41020478       1.98969082      -3.63410878
