%chk=test.chk
# test

title

0 2
 C                  1.37872728   -0.15157716   -0.75185332
 C                  1.94511553   -1.17983340   -0.06458140
 O                  1.16579205   -2.02356199    0.83799935
 C                 -0.05265124   -1.46844427    1.39708112
 C                 -0.68669192   -0.46486685    0.78743282
 C                 -0.04591506    0.23640514   -0.35757223
 O                 -0.75456510    1.11046142   -0.87113097
 O                 -1.81475450   -0.03009909    1.09149170
 C                  3.45211758   -1.47488600   -0.26647869
 O                  4.16933598   -0.25034894   -0.58245609
 H                  1.92147056    0.36282514   -1.52964946
 H                 -0.45349074   -1.87045758    2.30270932
 H                  3.85830867   -1.92210038    0.63033018
 H                  3.55599538   -2.15558523   -1.08863929
 H                  4.06903439    0.41069745    0.09162848
 Fe                -2.33563997    1.37184373    0.03239831
 C                 -3.76477069    2.83107784   -3.49095313
 C                 -4.34828662    2.09831625   -4.46181499
 O                 -4.83101492    0.75039173   -4.21587631
 C                 -4.23487029    0.00634774   -3.12268460
 C                 -3.64981734    0.66070449   -2.09430442
 C                 -3.41551813    2.12284878   -2.19778708
 O                 -2.92700568    2.62665918   -1.18542234
 O                 -3.26765108    0.18174908   -1.01846454
 C                 -4.51003723    2.70976011   -5.87029890
 O                 -3.43892117    3.63707549   -6.14278649
 H                 -3.55330533    3.86161648   -3.63755868
 H                 -4.26271492   -1.07543591   -3.12815568
 H                 -4.46832804    1.93315772   -6.59926217
 H                 -5.45919951    3.21065758   -5.93108395
 H                 -2.58974291    3.17744789   -6.12930305
 C                 -1.41532675    3.89032241    3.09831374
 C                 -2.03319117    3.87959323    4.30898386
 O                 -3.09837040    2.91894700    4.63946711
 C                 -3.80582055    2.30087234    3.52056185
 C                 -3.22202671    2.22338126    2.30817804
 C                 -1.96896187    2.95571583    2.03418718
 O                 -1.49034371    2.74545670    0.88945645
 O                 -3.64048019    1.57310713    1.31725271
 C                 -1.58601536    4.91301452    5.34754327
 O                 -1.14400192    6.10890888    4.70475610
 H                 -0.57998149    4.52602829    2.90286658
 H                 -4.79507968    1.89687621    3.65492352
 H                 -2.41387989    5.14965638    5.99397612
 H                 -0.78071803    4.49900174    5.92569860
 H                 -1.88801212    6.46326168    4.17793586

