100
 energy: -181.795292703142 gnorm: 0.004015694774 xtb: 6.6.0 (conda-forge)
Fe          -0.02419726117881        0.13792960714799       -0.02553873879779
C           -1.59653743805169        0.65187713539003        0.87326053932185
C            0.85245125755145       -0.08410314794467        1.62542987644517
C           -0.58506304790778       -1.65861957431486        0.00767249821438
C            1.54160486039790       -0.39415882127530       -0.92045630048879
C           -0.89234245634754        0.40849270414428       -1.67651982924454
C            0.56512303940180        1.92246149671535       -0.07900961200117
N           -2.56943349785557        0.96861349448578        1.42284198826556
N            1.40523624575628       -0.20945999089647        2.63914444020402
N           -0.91837725418359       -2.77093642391105        0.02951154766898
N            2.51515874041274       -0.71852383898078       -1.46434355856665
N           -1.42219378958478        0.59658284904053       -2.69251160375353
N            0.94274722030942        3.01975274963999       -0.12631165572307
H            2.09338540696885        5.65377219344818       -1.21650556569600
H            1.57085971576714        4.66382903349722       -0.14706741121016
H            5.29742445379383       -0.98312327709953       -2.76859145378576
H            3.94466837806522       -1.46105983074466       -2.18819330397899
H            3.64172968077403        0.11547441263307        4.71835087362665
H            2.22950458413446       -0.25433911779049        4.20643379995398
H           -1.55709620920715       -4.40933043305833        0.11279608981582
H           -1.00533874205736       -5.85076850534313        0.23484102526871
H           -3.94423380976189        1.45113512258041        2.40364814432190
H           -5.47030858944245        1.62579719257073        2.20426915133247
H           -2.32903429056388        2.04842846343969       -5.37400580685566
H           -2.22694399254378        0.96565086987272       -4.26262662524496
O            2.79006684905612       -0.22431011284528        5.00921080449776
O            4.77975241354055       -1.77564902470808       -2.59233023060096
O           -1.82475548708694       -5.35089362512333        0.16511936732565
O           -4.77124319606448        1.71705650939234        2.85853919200365
O           -2.67056298167535        1.17815113684737       -5.10787227945866
O            1.92731573204888        5.56802602486313       -0.27241952116646
O            2.31211896442435       -1.20093046721398        7.65586284302665
H            2.51027746254767       -0.88747990586906        6.75937324382055
H            1.35252196165560       -1.25264771237513        7.70878685975784
O           -3.18977416039032       -2.95018187983450        8.58233691749426
H           -3.09048457422877       -3.71420320977284        8.00522530239708
H           -3.47594471369401       -2.21546106167981        8.03108630977981
O            2.59218636091302        4.48012275202398        7.32034831534253
H            2.88078612987312        3.66510812799890        7.74392711566705
H            2.19481770892040        4.23303445865997        6.48025637758660
O            3.56263434053509       -5.53846117279822        4.77747026794244
H            3.87217448872892       -5.12897742047867        5.59246397254671
H            2.97765613046855       -4.90473065943596        4.35328172603237
O           -5.40553934461224        1.29708178935215        5.56892733936067
H           -5.14782616069550        1.37550173456215        4.63504713288937
H           -5.26447959678544        2.17005882159954        5.94929737961373
O            7.41804253170785        5.76548407675533        4.71693673487816
H            7.30344760182277        5.45006728805156        3.81519858511563
H            6.53752632565571        5.93832317643670        5.06481947498926
O           -3.38966363263470       -7.36071771180315        4.93250388633506
H           -2.60273094185641       -7.03074783847871        4.48955663410909
H           -4.12853336148979       -7.21263320593634        4.33303407446940
O           -2.91134239735024        6.84118213590139        1.49345602299385
H           -2.82115467354327        5.88490498251523        1.53453545042277
H           -2.03160473527200        7.21110110238956        1.60897152552277
O            9.27107854867005       -1.95355122655792        0.29385408944935
H            9.02473779289509       -1.03167190370457        0.18029657669026
H            8.45416152347215       -2.45732620924168        0.33858499741566
O           -6.77317174924202       -3.56140330443970        2.77932228166745
H           -6.09169861031534       -3.65179968556556        2.10654706154549
H           -6.51535194045718       -2.82567661116028        3.34381094933568
O            3.60270294270870        7.07243501297868        1.42835143434345
H            3.03662049721306        6.46609575136401        0.92341165254787
H            3.24166146564137        7.95307667774363        1.28133606772190
O            3.54921719817856       -7.72290193018532       -0.43032151396164
H            3.47752088887601       -6.89792399895932       -0.91913961041512
H            3.64756070161284       -7.49363958246464        0.49932691401743
O           -6.37498256390103        5.42739725496347       -2.82636033661621
H           -6.29910247294594        4.62682620353787       -3.35403358866602
H           -5.86123520994917        5.28525356302712       -2.02685873165514
O            6.71375891595865        3.07187339100334       -0.34544008072430
H            6.62965748592525        3.98916600278236       -0.62635752311142
H            5.84226666594936        2.78581015416609       -0.05898808193181
O           -4.01560494342630       -6.42703908695356       -1.26842330031085
H           -3.27984032657055       -6.09981356009717       -0.72386031021489
H           -4.31623805637402       -5.67225483121091       -1.78289657856242
O           -2.04202958943573        8.58846546897940       -3.33971015913970
H           -1.68506994651981        7.75660598299525       -3.01674094075802
H           -2.86168939397587        8.74567121309412       -2.85898990626017
O            5.13763250097393       -3.96912264751395       -4.32725557107893
H            5.97551265885537       -4.32058452300989       -4.00680800883470
H            4.91467521488384       -3.23468465679732       -3.73120243127477
O           -5.37861299684732        0.51467161398496       -5.40173945301673
H           -4.44945568206758        0.79570412892032       -5.31131679766942
H           -5.41980393585212       -0.35845773083311       -5.00206747737951
O            5.41273101703655        4.85078433043736       -5.20369369355593
H            5.88757940300526        4.01700211387502       -5.27517497529093
H            4.47910427884150        4.63500549849250       -5.13244904945066
O            0.38045793212135       -7.19555355988941       -5.04667120224132
H            1.13739465937053       -6.61275553860516       -4.93170489670467
H           -0.21679646798178       -7.03144335872586       -4.31019843427004
O           -1.83905107996453        3.74649906691765       -6.09561946591937
H           -1.34063634607301        3.77401231501230       -6.92029898934932
H           -2.53056297536388        4.41392410362517       -6.16534395329262
O            2.90614178130205        0.54636853567829       -6.90651829170015
H            3.35653922639899       -0.30386657783257       -6.95369203089713
H            2.27094469914264        0.48729647660625       -6.18743477689907
O           -3.01384949717733        0.73819802124822      -10.37717077968127
H           -2.39170422852080        0.27301474183321       -9.80973508841746
H           -3.77146819823600        0.96246404934795       -9.82783727943790
