46
kojate_red_low_spin.log	Energy: -1773711.9375586
C         -1.38377        3.56891        1.03846
C         -1.14660        4.80980        0.48222
O         -0.36569        5.03377       -0.67411
C          0.24381        3.87997       -1.28189
C          0.05062        2.59425       -0.79349
C         -0.79522        2.41225        0.42325
O         -0.91385        1.12742        0.77577
O          0.53095        1.43447       -1.28289
C         -1.66969        6.18585        0.96892
O         -0.82524        7.27462        0.45021
H         -2.00744        3.48958        1.93673
H          0.81523        4.15842       -2.17426
H         -2.73344        6.31923        0.63877
H         -1.67809        6.21315        2.08255
H         -0.36084        6.75450       -0.31379
Fe         0.00102       -0.00219       -0.15749
C         -2.40539       -2.98142        1.03957
C         -3.59911       -3.39465        0.48300
O         -4.18119       -2.83107       -0.67487
C         -3.48369       -1.72891       -1.28388
C         -2.27312       -1.25512       -0.79503
C         -1.69501       -1.89595        0.42321
O         -0.52206       -1.35822        0.77586
O         -1.50636       -0.26160       -1.28527
C         -4.53246       -4.53250        0.97103
O         -5.89622       -4.34375        0.45022
H         -2.02686       -3.48117        1.93906
H         -4.00894       -1.37354       -2.17730
H         -4.11802       -5.52191        0.64374
H         -4.55352       -4.55100        2.08453
H         -5.67583       -3.68323       -0.31462
C          3.78534       -0.58845        1.04108
C          4.74232       -1.41297        0.48445
O          4.54708       -2.19991       -0.67295
C          3.24355       -2.15087       -1.28170
C          2.22582       -1.34198       -0.79294
C          2.48974       -0.51990        0.42506
O          1.43564        0.22425        0.77762
O          0.98155       -1.17807       -1.28307
C          6.19564       -1.64699        0.97157
O          6.71996       -2.91858        0.44744
H          4.02754       -0.00954        1.94015
H          3.20008       -2.78380       -2.17495
H          6.84117       -0.78949        0.64636
H          6.22247       -1.65860        2.08507
H          6.03702       -3.06037       -0.31633
