19
Ti_2_BLYP.log	Energy: -820690.4911393
Ti         0.00003        0.00025        0.00002
O          0.69930        1.70495        1.23785
H          0.30205        2.59752        1.27551
O          1.82608        0.24614       -1.23837
H          2.17486       -0.37566       -1.90679
O          1.12685       -1.45718        1.23853
H          0.76324       -2.06902        1.90825
O         -0.69917       -1.70528       -1.23694
H         -1.41178       -1.69717       -1.90567
O         -1.82634       -0.24626        1.23785
H         -2.17592        0.37515        1.90621
O         -1.12679        1.45712       -1.23895
H         -0.76309        2.07023       -1.90745
H         -2.09840        1.55979       -1.27555
H          2.40063        1.03632       -1.27584
H          1.41328        1.69660        1.90511
H         -2.40089       -1.03650        1.27418
H          2.09842       -1.56044        1.27457
H         -0.30252       -2.59819       -1.27269
