19
Ti_2_B3LYP.log	Energy: -820757.6410154
Ti        -0.00001        0.00001       -0.00000
O          0.11876       -1.83440       -1.23154
H         -0.51211       -2.12770       -1.90399
O          1.64693       -0.81201        1.23437
H          2.56008       -0.49199        1.25361
O          1.52798        1.01781       -1.23474
H          1.70715        1.96863       -1.25601
O         -0.11875        1.83437        1.23160
H         -0.85251        2.46512        1.25081
O         -1.64691        0.81203       -1.23440
H         -2.56005        0.49199       -1.25370
O         -1.52800       -1.01782        1.23472
H         -1.70714       -1.96864        1.25594
H         -2.09645       -0.61694        1.90730
H          1.58484       -1.50358        1.90823
H          0.85251       -2.46516       -1.25066
H         -1.58482        1.50366       -1.90820
H          2.09640        0.61690       -1.90734
H          0.51218        2.12766        1.90401
