%chk=Fe_3_B2PLYP_3_6.chk
#p B2PLYP 6-31+G(2df,p) scf=(maxcycles=500,xqc,maxconventional=50) scrf=(cpcm,solvent=water)

Fe_3_B2PLYP_solvated_radius_4_solvated_radius_6

3 6
Fe        -0.00001       -0.00001        0.00001
O         -1.31637       -0.53717        1.45646
H         -1.17721       -0.46513        2.41858
O          0.79323       -1.87427        0.02552
H          1.52593       -2.20083       -0.52832
O         -1.33468       -0.58411       -1.42131
H         -2.01993       -0.02837       -1.83582
O          1.31641        0.53711       -1.45644
H          2.20506        0.91502       -1.32339
O         -0.79315        1.87430       -0.02563
H         -1.52582        2.20098        0.52817
O          1.33458        0.58414        1.42139
H          2.01981        0.02845        1.83598
H          1.40898        1.47230        1.81619
H          0.51213       -2.61475        0.59377
H         -2.20503       -0.91507        1.32343
H         -0.51199        2.61469       -0.59396
H         -1.40916       -1.47225       -1.81612
H          1.17728        0.46503       -2.41856
O 1.798439979137007 3.1578947368364987e-06 4.124997368421052
H 2.698439979137007 3.1578947368364987e-06 4.124997368421052
H 1.5054286401255659 0.850969875934122 4.124997368421052
O -2.194753352508448 -2.0105735902158233 3.374997368421053
H -1.2947533525084483 -2.0105735902158233 3.374997368421053
H -2.487764691519889 -1.159606872176438 3.374997368421053
O 0.3195483676180273 3.641056008231147 2.6249973684210524
H 1.2195483676180272 3.641056008231147 2.6249973684210524
H 0.0265370286065863 4.492022726270532 2.6249973684210524
O 2.48898479806046 -3.246432640780165 1.8749973684210526
H 3.3889847980604597 -3.246432640780165 1.8749973684210526
H 2.1959734590490188 -2.3954659227407795 1.8749973684210526
O -4.2904981376943425 0.7589324250523786 1.1249973684210526
H -3.3904981376943426 0.7589324250523786 1.1249973684210526
H -4.583509476705784 1.6098991430917637 1.1249973684210526
O 3.7836953399218904 2.406878408435695 0.3749973684210529
H 4.683695339921891 2.406878408435695 0.3749973684210529
H 3.4906840009104494 3.25784512647508 0.3749973684210529
O -1.1641528301216246 -4.330599090703679 -0.37500263157894714
H -0.2641528301216246 -4.330599090703679 -0.37500263157894714
H -1.4571641691330657 -3.4796323726642937 -0.37500263157894714
O -2.0082177268282506 3.866710268365147 -1.125002631578947
H -1.1082177268282507 3.866710268365147 -1.125002631578947
H -2.3012290658396917 4.717676986404532 -1.125002631578947
O 3.8425477596745625 -1.403287967756929 -1.875002631578948
H 4.742547759674562 -1.403287967756929 -1.875002631578948
H 3.5495364206631215 -0.5523212497175438 -1.875002631578948
O -3.378524106810249 -1.3946037837361478 -2.6250026315789463
H -2.4785241068102493 -1.3946037837361478 -2.6250026315789463
H -3.6715354458216902 -0.5436370656967626 -2.6250026315789463
O 1.2615681421181906 2.6958942518711377 -3.375002631578947
H 2.1615681421181905 2.6958942518711377 -3.375002631578947
H 0.9685568031067495 3.546860969910523 -3.375002631578947
O 0.5382462797160488 -1.716000729575232 -4.125002631578948
H 1.438246279716049 -1.716000729575232 -4.125002631578948
H 0.24523494070460777 -0.8650340115358468 -4.125002631578948
O 2.323172643328221 0.14573801395853492 6.138886257309942
H 3.223172643328221 0.14573801395853492 6.138886257309942
H 2.03016130431678 0.9967047319979201 6.138886257309942
O -2.4625633929625605 -2.2813054962663823 5.41666403508772
H -1.5625633929625606 -2.2813054962663823 5.41666403508772
H -2.7555747319740016 -1.4303387782269972 5.41666403508772
O 0.5798588170727612 4.624320867721963 4.694441812865498
H 1.4798588170727611 4.624320867721963 4.694441812865498
H 0.2868474780613202 5.475287585761348 4.694441812865498
O 3.3172536054506176 -3.9373706763972636 3.9722195906432756
H 4.217253605450618 -3.9373706763972636 3.9722195906432756
H 3.0242422664391766 -3.086403958357878 3.9722195906432756
O -5.356304309828653 1.1262369743683842 3.249997368421054
H -4.456304309828653 1.1262369743683842 3.249997368421054
H -5.649315648840094 1.9772036924077694 3.249997368421054
O 5.239512785679703 3.3598536174661873 2.527775146198831
H 6.139512785679703 3.3598536174661873 2.527775146198831
H 4.946501446668262 4.210820335505573 2.527775146198831
O -1.4342093603444663 -5.884375065413655 1.8055529239766088
H -0.5342093603444663 -5.884375065413655 1.8055529239766088
H -1.7272206993559074 -5.03340834737427 1.8055529239766088
O -2.767182458930482 5.83347170066002 1.0833307017543867
H -1.8671824589304822 5.83347170066002 1.0833307017543867
H -3.060193797941923 6.684438418699405 1.0833307017543867
O 6.282969439716033 -2.080569453624644 0.3611084795321648
H 7.182969439716033 -2.080569453624644 0.3611084795321648
H 5.989958100704592 -1.229602735585259 0.3611084795321648
O -5.812156465348252 -2.330548342850319 -0.36111374269005736
H -4.912156465348252 -2.330548342850319 -0.36111374269005736
H -6.105167804359693 -1.479581624810934 -0.36111374269005736
O 2.903276115419448 5.95066725091243 -1.0833359649122796
H 3.803276115419448 5.95066725091243 -1.0833359649122796
H 2.610264776408007 6.801633968951815 -1.0833359649122796
O 2.055597259957297 -5.812248657685219 -1.8055581871345017
H 2.955597259957297 -5.812248657685219 -1.8055581871345017
H 1.762585920945856 -4.961281939645834 -1.8055581871345017
O -4.994377321831669 3.148342261436185 -2.527780409356724
H -4.094377321831669 3.148342261436185 -2.527780409356724
H -5.28738866084311 3.99930897947557 -2.527780409356724
O 5.684679702379492 1.354429135491248 -3.2500026315789476
H 6.584679702379493 1.354429135491248 -3.2500026315789476
H 5.391668363368051 2.205395853530633 -3.2500026315789476
O -2.7722542020294503 -4.0632270262685655 -3.9722248538011686
H -1.8722542020294504 -4.0632270262685655 -3.9722248538011686
H -3.0652655410408913 -3.2122603082291805 -3.9722248538011686
O -0.39094748413691954 4.604256497765467 -4.694447076023391
H 0.5090525158630805 4.604256497765467 -4.694447076023391
H -0.6839588231483605 5.455223215804852 -4.694447076023391
O 2.934202131535125 -2.1697665621689266 -5.416669298245613
H 3.834202131535125 -2.1697665621689266 -5.416669298245613
H 2.641190792523684 -1.3187998441295414 -5.416669298245613
O -1.9477273065741727 0.057468174202345665 -6.138891520467835
H -1.0477273065741728 0.057468174202345665 -6.138891520467835
H -2.2407386455856138 0.9084348922417308 -6.138891520467835



