%chk=Fe_3_PBE0_3_6.chk
#p PBE1PBE 6-31+G(2df,p) scf=(maxcycles=500,xqc,maxconventional=50) scrf=(cpcm,solvent=water)

Fe_3_PBE0_solvated_radius_4_solvated_radius_6

3 6
Fe         0.00006       -0.00001       -0.00018
O         -1.16544        0.83251        1.43850
H         -1.69526        0.35461        2.10010
O         -1.58283       -0.01443       -1.27101
H         -1.58481       -0.34180       -2.18732
O          0.51218        1.85075       -0.65837
H          1.26726        2.38319       -0.35311
O          1.16457       -0.83330       -1.43884
H          1.29901       -1.78465       -1.59263
O          1.58129        0.01623        1.27284
H          1.57919        0.33851        2.19096
O         -0.50988       -1.85174        0.65723
H         -1.26606       -2.38391        0.35425
H         -0.04295       -2.37243        1.33374
H         -2.48111        0.30507       -1.07655
H         -1.29834        1.78373        1.59451
H          2.48201       -0.29647        1.07861
H          0.04838        2.37038       -1.33785
H          1.69207       -0.35607       -2.10277
O 1.798402084400165 8.947368421035285e-06 4.125111052631579
H 2.698402084400165 8.947368421035285e-06 4.125111052631579
H 1.5053907453887239 0.8509756654078062 4.125111052631579
O -2.1947912472452904 -2.0105678007421393 3.375111052631579
H -1.2947912472452905 -2.0105678007421393 3.375111052631579
H -2.4878025862567315 -1.159601082702754 3.375111052631579
O 0.31951047288118517 3.641061797704831 2.6251110526315786
H 1.2195104728811852 3.641061797704831 2.6251110526315786
H 0.026499133869744174 4.492028515744217 2.6251110526315786
O 2.4889469033236176 -3.246426851306481 1.8751110526315788
H 3.3889469033236175 -3.246426851306481 1.8751110526315788
H 2.1959355643121765 -2.395460133267096 1.8751110526315788
O -4.290536032431184 0.7589382145260628 1.1251110526315788
H -3.3905360324311844 0.7589382145260628 1.1251110526315788
H -4.583547371442625 1.609904932565448 1.1251110526315788
O 3.783657445185048 2.406884197909379 0.37511105263157923
H 4.683657445185048 2.406884197909379 0.37511105263157923
H 3.490646106173607 3.2578509159487643 0.37511105263157923
O -1.1641907248584666 -4.330593301229994 -0.3748889473684208
H -0.2641907248584666 -4.330593301229994 -0.3748889473684208
H -1.4572020638699077 -3.4796265831906092 -0.3748889473684208
O -2.008255621565093 3.866716057838831 -1.1248889473684207
H -1.108255621565093 3.866716057838831 -1.1248889473684207
H -2.301266960576534 4.717682775878216 -1.1248889473684207
O 3.8425098649377203 -1.4032821782832448 -1.8748889473684218
H 4.742509864937721 -1.4032821782832448 -1.8748889473684218
H 3.5494985259262792 -0.5523154602438596 -1.8748889473684218
O -3.3785620015470914 -1.3945979942624636 -2.62488894736842
H -2.4785620015470915 -1.3945979942624636 -2.62488894736842
H -3.6715733405585325 -0.5436312762230784 -2.62488894736842
O 1.2615302473813486 2.6959000413448218 -3.374888947368421
H 2.1615302473813487 2.6959000413448218 -3.374888947368421
H 0.9685189083699075 3.5468667593842067 -3.374888947368421
O 0.5382083849792065 -1.7159949401015477 -4.124888947368421
H 1.4382083849792067 -1.7159949401015477 -4.124888947368421
H 0.24519704596776554 -0.8650282220621626 -4.124888947368421
O 2.3231347485913787 0.14574380343221907 6.138999941520468
H 3.2231347485913786 0.14574380343221907 6.138999941520468
H 2.0301234095799376 0.9967105214716042 6.138999941520468
O -2.462601287699403 -2.2812997067926983 5.4167777192982465
H -1.5626012876994029 -2.2812997067926983 5.4167777192982465
H -2.755612626710844 -1.4303329887533132 5.4167777192982465
O 0.579820922335919 4.624326657195647 4.694555497076024
H 1.4798209223359189 4.624326657195647 4.694555497076024
H 0.286809583324478 5.475293375235032 4.694555497076024
O 3.3172157107137754 -3.9373648869235796 3.972333274853802
H 4.217215710713775 -3.9373648869235796 3.972333274853802
H 3.0242043717023344 -3.0863981688841946 3.972333274853802
O -5.356342204565496 1.1262427638420685 3.2501110526315804
H -4.4563422045654955 1.1262427638420685 3.2501110526315804
H -5.649353543576937 1.9772094818814536 3.2501110526315804
O 5.23947489094286 3.3598594069398713 2.527888830409357
H 6.139474890942861 3.3598594069398713 2.527888830409357
H 4.946463551931419 4.210826124979256 2.527888830409357
O -1.4342472550813086 -5.884369275939971 1.8056666081871353
H -0.5342472550813085 -5.884369275939971 1.8056666081871353
H -1.7272585940927496 -5.033402557900586 1.8056666081871353
O -2.7672203536673243 5.833477490133704 1.0834443859649132
H -1.8672203536673244 5.833477490133704 1.0834443859649132
H -3.0602316926787654 6.684444208173089 1.0834443859649132
O 6.28293154497919 -2.08056366415096 0.3612221637426911
H 7.182931544979191 -2.08056366415096 0.3612221637426911
H 5.989920205967749 -1.229596946111575 0.3612221637426911
O -5.812194360085095 -2.330542553376635 -0.36100005847953104
H -4.912194360085095 -2.330542553376635 -0.36100005847953104
H -6.105205699096536 -1.47957583533725 -0.36100005847953104
O 2.903238220682606 5.950673040386114 -1.083222280701753
H 3.803238220682606 5.950673040386114 -1.083222280701753
H 2.610226881671165 6.801639758425499 -1.083222280701753
O 2.055559365220455 -5.812242868211534 -1.8054445029239752
H 2.955559365220455 -5.812242868211534 -1.8054445029239752
H 1.7625480262090139 -4.961276150172149 -1.8054445029239752
O -4.994415216568512 3.148348050909869 -2.5276667251461977
H -4.094415216568511 3.148348050909869 -2.5276667251461977
H -5.287426555579953 3.9993147689492545 -2.5276667251461977
O 5.68464180764265 1.3544349249649323 -3.2498889473684214
H 6.58464180764265 1.3544349249649323 -3.2498889473684214
H 5.391630468631209 2.2054016430043175 -3.2498889473684214
O -2.7722920967662925 -4.063221236794882 -3.9721111695906424
H -1.8722920967662926 -4.063221236794882 -3.9721111695906424
H -3.0653034357777336 -3.212254518755497 -3.9721111695906424
O -0.3909853788737617 4.604262287239151 -4.694333391812865
H 0.5090146211262383 4.604262287239151 -4.694333391812865
H -0.6839967178852027 5.455229005278536 -4.694333391812865
O 2.9341642367982828 -2.1697607726952426 -5.416555614035087
H 3.8341642367982827 -2.1697607726952426 -5.416555614035087
H 2.6411528977868417 -1.3187940546558574 -5.416555614035087
O -1.947765201311015 0.05747396367602982 -6.138777836257309
H -1.047765201311015 0.05747396367602982 -6.138777836257309
H -2.240776540322456 0.908440681715415 -6.138777836257309



