%chk=Fe_3_PBE_3_6.chk
#p PBEPBE 6-31+G(2df,p) scf=(maxcycles=500,xqc,maxconventional=50) scrf=(cpcm,solvent=water)

Fe_3_PBE_solvated_radius_4_solvated_radius_6

3 6
Fe        -0.00001        0.00010        0.00002
O         -1.43081       -0.05645       -1.47999
H         -2.33954        0.31824       -1.43012
O         -0.69566       -1.79109        0.74098
H         -0.34312       -2.27888        1.51974
O          1.30752       -1.01516       -1.22501
H          1.94734       -0.61592       -1.85737
O          1.43159        0.05691        1.47924
H          1.33634        0.46196        2.37116
O          0.69522        1.79136       -0.74092
H          0.34477        2.27740       -1.52147
O         -1.30783        1.01419        1.22562
H         -1.94597        0.61399        1.85909
H         -1.41302        1.99070        1.28910
H         -1.44391       -2.32128        0.38365
H         -1.33533       -0.46284       -2.37128
H          1.44074        2.32371       -0.38133
H          1.41067       -1.99185       -1.28899
H          2.34097       -0.31597        1.42786
O 1.7984347159791123 -4.6315789473631196e-05 4.124998947368421
H 2.698434715979112 -4.6315789473631196e-05 4.124998947368421
H 1.5054233769676713 0.8509204022499115 4.124998947368421
O -2.194758615666343 -2.0106230639000335 3.374998947368421
H -1.294758615666343 -2.0106230639000335 3.374998947368421
H -2.487769954677784 -1.1596563458606484 3.374998947368421
O 0.3195431044601325 3.641006534546937 2.6249989473684208
H 1.2195431044601326 3.641006534546937 2.6249989473684208
H 0.026531765448691513 4.491973252586322 2.6249989473684208
O 2.488979534902565 -3.246482114464375 1.874998947368421
H 3.388979534902565 -3.246482114464375 1.874998947368421
H 2.195968195891124 -2.3955153964249902 1.874998947368421
O -4.290503400852237 0.7588829513681681 1.124998947368421
H -3.390503400852237 0.7588829513681681 1.124998947368421
H -4.583514739863678 1.6098496694075533 1.124998947368421
O 3.7836900767639956 2.4068289347514846 0.37499894736842126
H 4.6836900767639955 2.4068289347514846 0.37499894736842126
H 3.4906787377525546 3.25779565279087 0.37499894736842126
O -1.1641580932795192 -4.330648564387889 -0.3750010526315788
H -0.2641580932795192 -4.330648564387889 -0.3750010526315788
H -1.4571694322909603 -3.4796818463485044 -0.3750010526315788
O -2.0082229899861455 3.8666607946809366 -1.1250010526315786
H -1.1082229899861455 3.8666607946809366 -1.1250010526315786
H -2.3012343289975865 4.7176275127203215 -1.1250010526315786
O 3.8425424965166677 -1.4033374414411395 -1.8750010526315797
H 4.742542496516668 -1.4033374414411395 -1.8750010526315797
H 3.5495311575052266 -0.5523707234017543 -1.8750010526315797
O -3.378529369968144 -1.3946532574203583 -2.625001052631578
H -2.478529369968144 -1.3946532574203583 -2.625001052631578
H -3.671540708979585 -0.5436865393809731 -2.625001052631578
O 1.261562878960296 2.6958447781869275 -3.375001052631579
H 2.161562878960296 2.6958447781869275 -3.375001052631579
H 0.9685515399488549 3.5468114962263124 -3.375001052631579
O 0.5382410165581539 -1.7160502032594425 -4.125001052631579
H 1.438241016558154 -1.7160502032594425 -4.125001052631579
H 0.24522967754671293 -0.8650834852200573 -4.125001052631579
O 2.323167380170326 0.14568854027432446 6.138887836257308
H 3.223167380170326 0.14568854027432446 6.138887836257308
H 2.030156041158885 0.9966552583137096 6.138887836257308
O -2.4625686561204554 -2.2813549699505926 5.416665614035087
H -1.5625686561204555 -2.2813549699505926 5.416665614035087
H -2.7555799951318964 -1.4303882519112074 5.416665614035087
O 0.5798535539148664 4.624271394037753 4.6944433918128645
H 1.4798535539148663 4.624271394037753 4.6944433918128645
H 0.2868422149034254 5.475238112077138 4.6944433918128645
O 3.317248342292723 -3.937420150081474 3.9722211695906426
H 4.217248342292723 -3.937420150081474 3.9722211695906426
H 3.0242370032812818 -3.086453432042089 3.9722211695906426
O -5.356309572986548 1.1261875006841737 3.249998947368421
H -4.456309572986548 1.1261875006841737 3.249998947368421
H -5.6493209119979895 1.977154218723559 3.249998947368421
O 5.239507522521809 3.359804143781977 2.527776725146198
H 6.139507522521809 3.359804143781977 2.527776725146198
H 4.946496183510368 4.210770861821362 2.527776725146198
O -1.4342146235023612 -5.884424539097865 1.805554502923976
H -0.5342146235023612 -5.884424539097865 1.805554502923976
H -1.7272259625138022 -5.03345782105848 1.805554502923976
O -2.767187722088377 5.833422226975809 1.0833322807017538
H -1.867187722088377 5.833422226975809 1.0833322807017538
H -3.060199061099818 6.684388945015194 1.0833322807017538
O 6.2829641765581385 -2.0806189273088544 0.36111005847953176
H 7.182964176558139 -2.0806189273088544 0.36111005847953176
H 5.9899528375466975 -1.2296522092694693 0.36111005847953176
O -5.8121617285061475 -2.3305978165345294 -0.3611121637426904
H -4.912161728506147 -2.3305978165345294 -0.3611121637426904
H -6.105173067517589 -1.4796310984951442 -0.3611121637426904
O 2.9032708522615533 5.95061777722822 -1.0833343859649125
H 3.8032708522615533 5.95061777722822 -1.0833343859649125
H 2.6102595132501123 6.801584495267605 -1.0833343859649125
O 2.0555919967994023 -5.812298131369428 -1.8055566081871346
H 2.955591996799402 -5.812298131369428 -1.8055566081871346
H 1.7625806577879612 -4.9613314133300435 -1.8055566081871346
O -4.994382584989564 3.148292787751975 -2.527778830409357
H -4.094382584989564 3.148292787751975 -2.527778830409357
H -5.287393924001005 3.9992595057913602 -2.527778830409357
O 5.684674439221597 1.3543796618070376 -3.2500010526315806
H 6.5846744392215975 1.3543796618070376 -3.2500010526315806
H 5.391663100210156 2.205346379846423 -3.2500010526315806
O -2.772259465187345 -4.063276499952776 -3.9722232748538016
H -1.8722594651873452 -4.063276499952776 -3.9722232748538016
H -3.065270804198786 -3.2123097819133912 -3.9722232748538016
O -0.39095274729481433 4.604207024081257 -4.694445497076025
H 0.5090472527051857 4.604207024081257 -4.694445497076025
H -0.6839640863062553 5.455173742120642 -4.694445497076025
O 2.93419686837723 -2.169816035853137 -5.416667719298246
H 3.83419686837723 -2.169816035853137 -5.416667719298246
H 2.641185529365789 -1.3188493178137517 -5.416667719298246
O -1.9477325697320675 0.057418700518135204 -6.1388899415204685
H -1.0477325697320676 0.057418700518135204 -6.1388899415204685
H -2.2407439087435086 0.9083854185575204 -6.1388899415204685



