%chk=Fe_3_BLYP_3_6.chk
#p BLYP 6-31+G(2df,p) empiricaldispersion=gd3 scf=(maxcycles=500,xqc,maxconventional=50) scrf=(cpcm,solvent=water)

Fe_3_BLYP_solvated_radius_4_solvated_radius_6

3 6
Fe        -0.00000        0.00001        0.00001
O          0.84815        1.57230       -1.05342
H          0.50151        1.97531       -1.88415
O          1.11172       -1.34832       -1.11684
H          1.10122       -2.33059       -1.02897
O          1.53206        0.10796        1.39363
H          1.53953        0.65409        2.21483
O         -0.84818       -1.57221        1.05352
H         -1.67373       -2.05749        0.81762
O         -1.11176        1.34831        1.11681
H         -1.10136        2.33055        1.02891
O         -1.53197       -0.10806       -1.39372
H         -1.53927       -0.65417       -2.21493
H         -2.38990        0.37722       -1.35977
H          1.74989       -1.12764       -1.83567
H          1.67384        2.05739       -0.81761
H         -1.74999        1.12764        1.83556
H          2.38991       -0.37745        1.35960
H         -0.50173       -1.97493        1.88447
O 1.7984336633475333 -4.210526315817058e-06 4.124993684210526
H 2.6984336633475334 -4.210526315817058e-06 4.124993684210526
H 1.5054223243360922 0.8509625075130693 4.124993684210526
O -2.194759668297922 -2.0105809586368757 3.3749936842105264
H -1.2947596682979219 -2.0105809586368757 3.3749936842105264
H -2.487771007309363 -1.1596142405974905 3.3749936842105264
O 0.31954205182855355 3.6410486398100947 2.624993684210526
H 1.2195420518285536 3.6410486398100947 2.624993684210526
H 0.026530712817112556 4.49201535784948 2.624993684210526
O 2.488978482270986 -3.2464400092012173 1.8749936842105264
H 3.388978482270986 -3.2464400092012173 1.8749936842105264
H 2.195967143259545 -2.3954732911618324 1.8749936842105264
O -4.290504453483816 0.7589250566313259 1.1249936842105264
H -3.3905044534838162 0.7589250566313259 1.1249936842105264
H -4.583515792495257 1.609891774670711 1.1249936842105264
O 3.783689024132417 2.4068710400146425 0.3749936842105266
H 4.683689024132417 2.4068710400146425 0.3749936842105266
H 3.4906776851209758 3.257837758054028 0.3749936842105266
O -1.1641591459110983 -4.3306064591247315 -0.37500631578947347
H -0.26415914591109824 -4.3306064591247315 -0.37500631578947347
H -1.4571704849225393 -3.4796397410853466 -0.37500631578947347
O -2.0082240426177242 3.8667028999440944 -1.1250063157894732
H -1.1082240426177243 3.8667028999440944 -1.1250063157894732
H -2.3012353816291653 4.717669617983479 -1.1250063157894732
O 3.842541443885089 -1.4032953361779816 -1.8750063157894743
H 4.742541443885089 -1.4032953361779816 -1.8750063157894743
H 3.549530104873648 -0.5523286181385965 -1.8750063157894743
O -3.378530422599723 -1.3946111521572004 -2.6250063157894727
H -2.478530422599723 -1.3946111521572004 -2.6250063157894727
H -3.671541761611164 -0.5436444341178153 -2.6250063157894727
O 1.261561826328717 2.6958868834500853 -3.3750063157894736
H 2.161561826328717 2.6958868834500853 -3.3750063157894736
H 0.9685504873172759 3.5468536014894703 -3.3750063157894736
O 0.538239963926575 -1.7160080979962846 -4.125006315789474
H 1.438239963926575 -1.7160080979962846 -4.125006315789474
H 0.24522862491513403 -0.8650413799568994 -4.125006315789474
O 2.3231663275387473 0.14573064553748236 6.138882573099415
H 3.223166327538747 0.14573064553748236 6.138882573099415
H 2.0301549885273062 0.9966973635768676 6.138882573099415
O -2.462569708752034 -2.2813128646874348 5.416660350877193
H -1.5625697087520343 -2.2813128646874348 5.416660350877193
H -2.7555810477634752 -1.4303461466480496 5.416660350877193
O 0.5798525012832875 4.624313499300911 4.694438128654971
H 1.4798525012832875 4.624313499300911 4.694438128654971
H 0.2868411622718465 5.475280217340296 4.694438128654971
O 3.317247289661144 -3.937378044818316 3.9722159064327487
H 4.217247289661144 -3.937378044818316 3.9722159064327487
H 3.024235950649703 -3.086411326778931 3.9722159064327487
O -5.356310625618127 1.1262296059473316 3.2499936842105273
H -4.456310625618126 1.1262296059473316 3.2499936842105273
H -5.649321964629568 1.9771963239867167 3.2499936842105273
O 5.239506469890229 3.359846249045135 2.527771461988304
H 6.13950646989023 3.359846249045135 2.527771461988304
H 4.946495130878788 4.21081296708452 2.527771461988304
O -1.43421567613394 -5.884382433834707 1.805549239766082
H -0.5342156761339399 -5.884382433834707 1.805549239766082
H -1.727227015145381 -5.033415715795322 1.805549239766082
O -2.7671887747199557 5.833464332238967 1.0833270175438598
H -1.8671887747199558 5.833464332238967 1.0833270175438598
H -3.0602001137313968 6.684431050278352 1.0833270175438598
O 6.282963123926559 -2.0805768220456966 0.3611047953216379
H 7.18296312392656 -2.0805768220456966 0.3611047953216379
H 5.989951784915118 -1.2296101040063114 0.3611047953216379
O -5.812162781137726 -2.3305557112713715 -0.36111742690058424
H -4.9121627811377255 -2.3305557112713715 -0.36111742690058424
H -6.105174120149167 -1.4795889932319863 -0.36111742690058424
O 2.9032697996299746 5.950659882491378 -1.0833396491228064
H 3.8032697996299745 5.950659882491378 -1.0833396491228064
H 2.6102584606185335 6.801626600530763 -1.0833396491228064
O 2.0555909441678235 -5.812256026106271 -1.8055618713450285
H 2.9555909441678234 -5.812256026106271 -1.8055618713450285
H 1.7625796051563825 -4.961289308066886 -1.8055618713450285
O -4.994383637621143 3.1483348930151327 -2.527784093567251
H -4.094383637621142 3.1483348930151327 -2.527784093567251
H -5.287394976632584 3.999301611054518 -2.527784093567251
O 5.684673386590019 1.3544217670701955 -3.2500063157894745
H 6.584673386590019 1.3544217670701955 -3.2500063157894745
H 5.391662047578578 2.2053884851095806 -3.2500063157894745
O -2.772260517818924 -4.063234394689618 -3.9722285380116955
H -1.872260517818924 -4.063234394689618 -3.9722285380116955
H -3.065271856830365 -3.2122676766502334 -3.9722285380116955
O -0.39095379992639323 4.6042491293444145 -4.694450760233918
H 0.5090462000736068 4.6042491293444145 -4.694450760233918
H -0.6839651389378343 5.4552158473837995 -4.694450760233918
O 2.9341958157456514 -2.169773930589979 -5.41667298245614
H 3.8341958157456513 -2.169773930589979 -5.41667298245614
H 2.6411844767342103 -1.3188072125505939 -5.41667298245614
O -1.9477336223636463 0.0574608057812931 -6.138895204678362
H -1.0477336223636464 0.0574608057812931 -6.138895204678362
H -2.2407449613750874 0.9084275238206783 -6.138895204678362



