%chk=Fe_3_M06-HF_3_6.chk
#p M06HF 6-31+G(2df,p) scf=(maxcycles=500,xqc,maxconventional=50) scrf=(cpcm,solvent=water)

Fe_3_M06-HF_solvated_radius_4_solvated_radius_6

3 6
Fe         0.00003        0.00002        0.00004
O          1.49952       -0.88988       -1.04277
H          2.43845       -0.91717       -0.78473
O          0.32558        1.73228       -1.01039
H         -0.16387        2.56585       -0.89013
O         -1.33161       -0.57930       -1.42085
H         -1.83387       -1.41392       -1.42802
O         -1.50018        0.88958        1.04208
H         -1.40630        1.36622        1.88640
O         -0.32487       -1.73209        1.01092
H          0.16365       -2.56603        0.88948
O          1.33152        0.57936        1.42094
H          1.83295        1.41448        1.42871
H          1.58100        0.07007        2.21293
H          0.99827        1.87422       -1.70049
H          1.40489       -1.36560       -1.88752
H         -0.99613       -1.87357        1.70251
H         -1.58040       -0.07045       -2.21335
H         -2.43907        0.91560        0.78377
O 1.7984136633475332 -1.7368421052610967e-05 4.124975263157895
H 2.6984136633475333 -1.7368421052610967e-05 4.124975263157895
H 1.5054023243360921 0.8509493496183326 4.124975263157895
O -2.194779668297922 -2.0105941165316126 3.3749752631578946
H -1.294779668297922 -2.0105941165316126 3.3749752631578946
H -2.487791007309363 -1.1596273984922274 3.3749752631578946
O 0.31952205182855353 3.641035481915358 2.624975263157894
H 1.2195220518285534 3.641035481915358 2.624975263157894
H 0.026510712817112536 4.492002199954743 2.624975263157894
O 2.488958482270986 -3.246453167095954 1.8749752631578946
H 3.388958482270986 -3.246453167095954 1.8749752631578946
H 2.195947143259545 -2.395486449056569 1.8749752631578946
O -4.290524453483816 0.7589118987365892 1.1249752631578946
H -3.3905244534838164 0.7589118987365892 1.1249752631578946
H -4.583535792495257 1.6098786167759744 1.1249752631578946
O 3.7836690241324167 2.4068578821199056 0.374975263157895
H 4.683669024132417 2.4068578821199056 0.374975263157895
H 3.4906576851209756 3.2578246001592905 0.374975263157895
O -1.1641791459110984 -4.330619617019468 -0.3750247368421051
H -0.26417914591109837 -4.330619617019468 -0.3750247368421051
H -1.4571904849225394 -3.479652898980083 -0.3750247368421051
O -2.0082440426177244 3.8666897420493576 -1.125024736842105
H -1.1082440426177245 3.8666897420493576 -1.125024736842105
H -2.3012553816291654 4.717656460088743 -1.125024736842105
O 3.8425214438850888 -1.4033084940727185 -1.875024736842106
H 4.742521443885089 -1.4033084940727185 -1.875024736842106
H 3.5495101048736477 -0.5523417760333333 -1.875024736842106
O -3.378550422599723 -1.3946243100519373 -2.6250247368421045
H -2.478550422599723 -1.3946243100519373 -2.6250247368421045
H -3.671561761611164 -0.5436575920125521 -2.6250247368421045
O 1.2615418263287168 2.6958737255553484 -3.3750247368421054
H 2.1615418263287167 2.6958737255553484 -3.3750247368421054
H 0.9685304873172758 3.546840443594734 -3.3750247368421054
O 0.5382199639265749 -1.7160212558910215 -4.125024736842105
H 1.438219963926575 -1.7160212558910215 -4.125024736842105
H 0.2452086249151339 -0.8650545378516363 -4.125024736842105
O 2.323146327538747 0.14571748764274553 6.138864152046782
H 3.223146327538747 0.14571748764274553 6.138864152046782
H 2.030134988527306 0.9966842056821307 6.138864152046782
O -2.4625897087520343 -2.2813260225821717 5.416641929824561
H -1.5625897087520344 -2.2813260225821717 5.416641929824561
H -2.7556010477634754 -1.4303593045427865 5.416641929824561
O 0.5798325012832873 4.624300341406173 4.694419707602338
H 1.4798325012832874 4.624300341406173 4.694419707602338
H 0.28682116227184634 5.475267059445558 4.694419707602338
O 3.317227289661144 -3.937391202713053 3.9721974853801165
H 4.217227289661144 -3.937391202713053 3.9721974853801165
H 3.024215950649703 -3.0864244846736675 3.9721974853801165
O -5.356330625618127 1.126216448052595 3.249975263157895
H -4.4563306256181265 1.126216448052595 3.249975263157895
H -5.649341964629568 1.97718316609198 3.249975263157895
O 5.239486469890229 3.359833091150398 2.527753040935672
H 6.13948646989023 3.359833091150398 2.527753040935672
H 4.946475130878788 4.210799809189783 2.527753040935672
O -1.43423567613394 -5.884395591729445 1.8055308187134496
H -0.5342356761339401 -5.884395591729445 1.8055308187134496
H -1.7272470151453811 -5.03342887369006 1.8055308187134496
O -2.767208774719956 5.83345117434423 1.0833085964912275
H -1.867208774719956 5.83345117434423 1.0833085964912275
H -3.060220113731397 6.684417892383615 1.0833085964912275
O 6.282943123926559 -2.0805899799404335 0.3610863742690056
H 7.1829431239265595 -2.0805899799404335 0.3610863742690056
H 5.989931784915118 -1.2296232619010483 0.3610863742690056
O -5.812182781137726 -2.3305688691661084 -0.36113584795321657
H -4.912182781137726 -2.3305688691661084 -0.36113584795321657
H -6.105194120149167 -1.4796021511267232 -0.36113584795321657
O 2.9032497996299744 5.95064672459664 -1.0833580701754388
H 3.8032497996299743 5.95064672459664 -1.0833580701754388
H 2.6102384606185334 6.801613442636025 -1.0833580701754388
O 2.0555709441678234 -5.812269184001008 -1.805580292397661
H 2.9555709441678233 -5.812269184001008 -1.805580292397661
H 1.7625596051563823 -4.961302465961623 -1.805580292397661
O -4.994403637621143 3.148321735120396 -2.527802514619883
H -4.094403637621142 3.148321735120396 -2.527802514619883
H -5.287414976632584 3.9992884531597808 -2.527802514619883
O 5.684653386590019 1.3544086091754588 -3.2500247368421067
H 6.584653386590019 1.3544086091754588 -3.2500247368421067
H 5.391642047578578 2.2053753272148438 -3.2500247368421067
O -2.772280517818924 -4.063247552584356 -3.9722469590643277
H -1.8722805178189241 -4.063247552584356 -3.9722469590643277
H -3.065291856830365 -3.2122808345449707 -3.9722469590643277
O -0.39097379992639336 4.604235971449677 -4.694469181286551
H 0.5090262000736067 4.604235971449677 -4.694469181286551
H -0.6839851389378344 5.455202689489062 -4.694469181286551
O 2.9341758157456512 -2.169787088484716 -5.416691403508772
H 3.834175815745651 -2.169787088484716 -5.416691403508772
H 2.64116447673421 -1.3188203704453307 -5.416691403508772
O -1.9477536223636465 0.05744764788655628 -6.138913625730995
H -1.0477536223636466 0.05744764788655628 -6.138913625730995
H -2.2407649613750875 0.9084143659259415 -6.138913625730995



