%chk=Fe_3_M06-2X_3_6.chk
#p M062X 6-31+G(2df,p) scf=(maxcycles=500,xqc,maxconventional=50) scrf=(cpcm,solvent=water)

Fe_3_M06-2X_solvated_radius_4_solvated_radius_6

3 6
Fe        -0.00001       -0.00000       -0.00000
O         -1.33494        1.04642       -1.11681
H         -2.29896        0.90510       -1.14987
O          0.24565       -1.31659       -1.52640
H          0.83083       -2.09631       -1.52972
O          1.51084        1.13857       -0.73872
H          1.84597        1.97220       -0.36038
O          1.33495       -1.04637        1.11684
H          1.13170       -1.78318        1.72201
O         -0.24565        1.31658        1.52640
H         -0.83279        2.09481        1.53069
O         -1.51084       -1.13861        0.73869
H         -1.84679       -1.97157        0.35962
H         -2.03623       -0.95465        1.53902
H         -0.20001       -1.28811       -2.39300
H         -1.13175        1.78378       -1.72134
H          0.20200        1.28958        2.39202
H          2.03707        0.95392       -1.53833
H          2.29907       -0.90555        1.14926
O 1.7984426107159543 1.0526315789308914e-06 4.124998947368421
H 2.6984426107159543 1.0526315789308914e-06 4.124998947368421
H 1.5054312717045133 0.8509677706709641 4.124998947368421
O -2.194750720929501 -2.0105756954789813 3.374998947368421
H -1.294750720929501 -2.0105756954789813 3.374998947368421
H -2.487762059940942 -1.1596089774395961 3.374998947368421
O 0.3195509991969746 3.641053902967989 2.6249989473684208
H 1.2195509991969746 3.641053902967989 2.6249989473684208
H 0.02653966018553361 4.4920206210073745 2.6249989473684208
O 2.488987429639407 -3.246434746043323 1.874998947368421
H 3.388987429639407 -3.246434746043323 1.874998947368421
H 2.195976090627966 -2.395468028003938 1.874998947368421
O -4.290495506115395 0.7589303197892207 1.124998947368421
H -3.390495506115395 0.7589303197892207 1.124998947368421
H -4.583506845126836 1.6098970378286057 1.124998947368421
O 3.7836979715008376 2.406876303172537 0.3749989473684213
H 4.6836979715008376 2.406876303172537 0.3749989473684213
H 3.4906866324893966 3.2578430212119223 0.3749989473684213
O -1.1641501985426772 -4.330601195966836 -0.37500105263157874
H -0.2641501985426772 -4.330601195966836 -0.37500105263157874
H -1.4571615375541183 -3.4796344779274513 -0.37500105263157874
O -2.0082150952493034 3.866708163101989 -1.1250010526315786
H -1.1082150952493035 3.866708163101989 -1.1250010526315786
H -2.3012264342607445 4.717674881141374 -1.1250010526315786
O 3.8425503912535097 -1.4032900730200868 -1.8750010526315797
H 4.74255039125351 -1.4032900730200868 -1.8750010526315797
H 3.5495390522420687 -0.5523233549807016 -1.8750010526315797
O -3.378521475231302 -1.3946058889993056 -2.625001052631578
H -2.478521475231302 -1.3946058889993056 -2.625001052631578
H -3.671532814242743 -0.5436391709599204 -2.625001052631578
O 1.261570773697138 2.6958921466079797 -3.375001052631579
H 2.161570773697138 2.6958921466079797 -3.375001052631579
H 0.9685594346856969 3.5468588646473647 -3.375001052631579
O 0.5382489112949961 -1.7160028348383898 -4.125001052631579
H 1.438248911294996 -1.7160028348383898 -4.125001052631579
H 0.24523757228355508 -0.8650361167990046 -4.125001052631579
O 2.323175274907168 0.14573590869537706 6.138887836257308
H 3.223175274907168 0.14573590869537706 6.138887836257308
H 2.030163935895727 0.9967026267347623 6.138887836257308
O -2.4625607613836134 -2.2813076015295404 5.416665614035087
H -1.5625607613836134 -2.2813076015295404 5.416665614035087
H -2.7555721003950544 -1.4303408834901552 5.416665614035087
O 0.5798614486517084 4.624318762458805 4.6944433918128645
H 1.4798614486517083 4.624318762458805 4.6944433918128645
H 0.2868501096402674 5.47528548049819 4.6944433918128645
O 3.317256237029565 -3.9373727816604216 3.9722211695906426
H 4.217256237029565 -3.9373727816604216 3.9722211695906426
H 3.024244898018124 -3.0864060636210366 3.9722211695906426
O -5.3563016782497055 1.1262348691052264 3.249998947368421
H -4.456301678249705 1.1262348691052264 3.249998947368421
H -5.6493130172611465 1.9772015871446116 3.249998947368421
O 5.239515417258651 3.3598515122030292 2.527776725146198
H 6.139515417258651 3.3598515122030292 2.527776725146198
H 4.94650407824721 4.210818230242414 2.527776725146198
O -1.4342067287655191 -5.884377170676813 1.805554502923976
H -0.5342067287655191 -5.884377170676813 1.805554502923976
H -1.7272180677769602 -5.033410452637428 1.805554502923976
O -2.767179827351535 5.833469595396862 1.0833322807017538
H -1.867179827351535 5.833469595396862 1.0833322807017538
H -3.060191166362976 6.684436313436247 1.0833322807017538
O 6.282972071294981 -2.080571558887802 0.36111005847953176
H 7.182972071294981 -2.080571558887802 0.36111005847953176
H 5.9899607322835395 -1.229604840848417 0.36111005847953176
O -5.812153833769305 -2.330550448113477 -0.3611121637426904
H -4.912153833769304 -2.330550448113477 -0.3611121637426904
H -6.105165172780746 -1.479583730074092 -0.3611121637426904
O 2.9032787469983954 5.950665145649272 -1.0833343859649125
H 3.8032787469983953 5.950665145649272 -1.0833343859649125
H 2.6102674079869543 6.801631863688657 -1.0833343859649125
O 2.0555998915362443 -5.812250762948376 -1.8055566081871346
H 2.9555998915362443 -5.812250762948376 -1.8055566081871346
H 1.7625885525248033 -4.961284044908991 -1.8055566081871346
O -4.994374690252721 3.148340156173027 -2.527778830409357
H -4.094374690252721 3.148340156173027 -2.527778830409357
H -5.287386029264162 3.9993068742124125 -2.527778830409357
O 5.68468233395844 1.3544270302280903 -3.2500010526315806
H 6.58468233395844 1.3544270302280903 -3.2500010526315806
H 5.391670994946999 2.2053937482674755 -3.2500010526315806
O -2.772251570450503 -4.063229131531724 -3.9722232748538016
H -1.8722515704505032 -4.063229131531724 -3.9722232748538016
H -3.065262909461944 -3.212262413492339 -3.9722232748538016
O -0.3909448525579723 4.604254392502309 -4.694445497076025
H 0.5090551474420277 4.604254392502309 -4.694445497076025
H -0.6839561915694132 5.455221110541694 -4.694445497076025
O 2.934204763114072 -2.1697686674320846 -5.416667719298246
H 3.834204763114072 -2.1697686674320846 -5.416667719298246
H 2.641193424102631 -1.3188019493926995 -5.416667719298246
O -1.9477246749952255 0.057466068939187806 -6.1388899415204685
H -1.0477246749952256 0.057466068939187806 -6.1388899415204685
H -2.2407360140066666 0.908432786978573 -6.1388899415204685



