%chk=Fe_3_CAM-B3LYP_3_6.chk
#p CAM-B3LYP 6-31+G(2df,p) scf=(maxcycles=500,xqc,maxconventional=50) scrf=(cpcm,solvent=water)

Fe_3_CAM-B3LYP_solvated_radius_4_solvated_radius_6

3 6
Fe         0.00001        0.00002       -0.00003
O         -0.96685       -0.91223        1.53299
H         -1.62279       -1.63051        1.45634
O         -1.48934        1.37278       -0.12182
H         -1.53880        2.11731       -0.75066
O          0.98268        1.18322        1.32341
H          1.83943        0.98771        1.74748
O          0.96688        0.91220       -1.53301
H          0.86140        0.71313       -2.48240
O          1.48911       -1.37297        0.12220
H          1.53797       -2.11755        0.75109
O         -0.98251       -1.18305       -1.32370
H         -1.83926       -0.98759       -1.74777
H         -0.68509       -2.05199       -1.65323
H         -2.28785        1.40974        0.43784
H         -0.86130       -0.71328        2.48238
H          2.28799       -1.41012       -0.43705
H          0.68541        2.05228        1.65275
H          1.62275        1.63057       -1.45641
O 1.7984284001896385 -1.7368421052628497e-05 4.125021052631579
H 2.6984284001896386 -1.7368421052628497e-05 4.125021052631579
H 1.5054170611781974 0.8509493496183326 4.125021052631579
O -2.1947649314558166 -2.0105941165316126 3.375021052631579
H -1.2947649314558167 -2.0105941165316126 3.375021052631579
H -2.4877762704672577 -1.1596273984922274 3.375021052631579
O 0.3195367886706589 3.641035481915358 2.6250210526315785
H 1.219536788670659 3.641035481915358 2.6250210526315785
H 0.02652544965921788 4.492002199954743 2.6250210526315785
O 2.4889732191130913 -3.246453167095954 1.875021052631579
H 3.3889732191130912 -3.246453167095954 1.875021052631579
H 2.1959618801016503 -2.395486449056569 1.875021052631579
O -4.2905097166417105 0.7589118987365892 1.125021052631579
H -3.3905097166417106 0.7589118987365892 1.125021052631579
H -4.583521055653152 1.6098786167759744 1.125021052631579
O 3.783683760974522 2.4068578821199056 0.3750210526315792
H 4.683683760974522 2.4068578821199056 0.3750210526315792
H 3.490672421963081 3.2578246001592905 0.3750210526315792
O -1.164164409068993 -4.330619617019468 -0.37497894736842086
H -0.2641644090689931 -4.330619617019468 -0.37497894736842086
H -1.4571757480804342 -3.479652898980083 -0.37497894736842086
O -2.008229305775619 3.8666897420493576 -1.1249789473684206
H -1.1082293057756192 3.8666897420493576 -1.1249789473684206
H -2.30124064478706 4.717656460088743 -1.1249789473684206
O 3.842536180727194 -1.4033084940727185 -1.8749789473684217
H 4.742536180727194 -1.4033084940727185 -1.8749789473684217
H 3.549524841715753 -0.5523417760333333 -1.8749789473684217
O -3.3785356857576176 -1.3946243100519373 -2.62497894736842
H -2.4785356857576177 -1.3946243100519373 -2.62497894736842
H -3.6715470247690587 -0.5436575920125521 -2.62497894736842
O 1.261556563170822 2.6958737255553484 -3.374978947368421
H 2.161556563170822 2.6958737255553484 -3.374978947368421
H 0.968545224159381 3.546840443594734 -3.374978947368421
O 0.5382347007686803 -1.7160212558910215 -4.124978947368421
H 1.4382347007686804 -1.7160212558910215 -4.124978947368421
H 0.2452233617572393 -0.8650545378516363 -4.124978947368421
O 2.3231610643808525 0.14571748764274553 6.138909941520468
H 3.2231610643808524 0.14571748764274553 6.138909941520468
H 2.0301497253694114 0.9966842056821307 6.138909941520468
O -2.462574971909929 -2.2813260225821717 5.416687719298246
H -1.5625749719099291 -2.2813260225821717 5.416687719298246
H -2.75558631092137 -1.4303593045427865 5.416687719298246
O 0.5798472381253926 4.624300341406173 4.694465497076024
H 1.4798472381253926 4.624300341406173 4.694465497076024
H 0.28683589911395163 5.475267059445558 4.694465497076024
O 3.317242026503249 -3.937391202713053 3.9722432748538017
H 4.217242026503249 -3.937391202713053 3.9722432748538017
H 3.024230687491808 -3.0864244846736675 3.9722432748538017
O -5.356315888776022 1.126216448052595 3.2500210526315803
H -4.456315888776022 1.126216448052595 3.2500210526315803
H -5.649327227787463 1.97718316609198 3.2500210526315803
O 5.239501206732334 3.359833091150398 2.527798830409357
H 6.1395012067323345 3.359833091150398 2.527798830409357
H 4.946489867720893 4.210799809189783 2.527798830409357
O -1.4342209392918348 -5.884395591729445 1.8055766081871352
H -0.5342209392918348 -5.884395591729445 1.8055766081871352
H -1.7272322783032759 -5.03342887369006 1.8055766081871352
O -2.7671940378778506 5.83345117434423 1.083354385964913
H -1.8671940378778507 5.83345117434423 1.083354385964913
H -3.0602053768892916 6.684417892383615 1.083354385964913
O 6.282957860768664 -2.0805899799404335 0.361132163742691
H 7.182957860768664 -2.0805899799404335 0.361132163742691
H 5.989946521757223 -1.2296232619010483 0.361132163742691
O -5.812168044295621 -2.3305688691661084 -0.36109005847953113
H -4.912168044295621 -2.3305688691661084 -0.36109005847953113
H -6.105179383307062 -1.4796021511267232 -0.36109005847953113
O 2.9032645364720797 5.95064672459664 -1.0833122807017532
H 3.8032645364720796 5.95064672459664 -1.0833122807017532
H 2.6102531974606387 6.801613442636025 -1.0833122807017532
O 2.0555856810099287 -5.812269184001008 -1.8055345029239753
H 2.9555856810099286 -5.812269184001008 -1.8055345029239753
H 1.7625743419984876 -4.961302465961623 -1.8055345029239753
O -4.994388900779038 3.148321735120396 -2.527756725146198
H -4.0943889007790375 3.148321735120396 -2.527756725146198
H -5.287400239790479 3.9992884531597808 -2.527756725146198
O 5.6846681234321235 1.3544086091754588 -3.2499789473684215
H 6.584668123432124 1.3544086091754588 -3.2499789473684215
H 5.391656784420682 2.2053753272148438 -3.2499789473684215
O -2.7722657809768187 -4.063247552584356 -3.9722011695906425
H -1.8722657809768188 -4.063247552584356 -3.9722011695906425
H -3.06527711998826 -3.2122808345449707 -3.9722011695906425
O -0.39095906308428807 4.604235971449677 -4.694423391812865
H 0.509040936915712 4.604235971449677 -4.694423391812865
H -0.6839704020957291 5.455202689489062 -4.694423391812865
O 2.9341905525877565 -2.169787088484716 -5.416645614035087
H 3.8341905525877564 -2.169787088484716 -5.416645614035087
H 2.6411792135763155 -1.3188203704453307 -5.416645614035087
O -1.9477388855215412 0.05744764788655628 -6.138867836257309
H -1.0477388855215413 0.05744764788655628 -6.138867836257309
H -2.2407502245329822 0.9084143659259415 -6.138867836257309



