%chk=Fe_3_X3LYP_3_6.chk
#p X3LYP 6-31+G(2df,p) scf=(maxcycles=500,xqc,maxconventional=50) scrf=(cpcm,solvent=water)

Fe_3_X3LYP_solvated_radius_4_solvated_radius_6

3 6
Fe         0.00004        0.00002       -0.00002
O         -1.43034        0.13332       -1.45435
H         -2.35402       -0.17521       -1.38752
O          0.56026       -1.82991       -0.71846
H          1.26901       -2.39913       -0.36276
O          1.34922        0.90113       -1.24357
H          1.51565        1.85997       -1.31972
O          1.43005       -0.13341        1.45463
H          1.31629       -0.51763        2.34475
O         -0.56009        1.83004        0.71826
H         -1.26846        2.39947        0.36219
O         -1.34918       -0.90121        1.24350
H         -1.51560       -1.86005        1.31956
H         -1.94660       -0.45287        1.87192
H          0.16898       -2.29704       -1.48105
H         -1.31682        0.51696       -2.34478
H         -0.16920        2.29697        1.48121
H          1.94668        0.45271       -1.87191
H          2.35363        0.17562        1.38853
O 1.7984105054527963 -1.3157894736837735e-05 4.1250215789473685
H 2.6984105054527965 -1.3157894736837735e-05 4.1250215789473685
H 1.5053991664413553 0.8509535601446483 4.1250215789473685
O -2.1947828261926587 -2.010589906005297 3.3750215789473685
H -1.2947828261926588 -2.010589906005297 3.3750215789473685
H -2.4877941652041 -1.1596231879659118 3.3750215789473685
O 0.3195188939338167 3.6410396924416735 2.625021578947368
H 1.2195188939338166 3.6410396924416735 2.625021578947368
H 0.02650755492237572 4.492006410481059 2.625021578947368
O 2.4889553243762492 -3.2464489565696386 1.8750215789473683
H 3.388955324376249 -3.2464489565696386 1.8750215789473683
H 2.195943985364808 -2.3954822385302537 1.8750215789473683
O -4.290527611378553 0.7589161092629049 1.1250215789473683
H -3.390527611378553 0.7589161092629049 1.1250215789473683
H -4.583538950389994 1.60988282730229 1.1250215789473683
O 3.78366586623768 2.406862092646221 0.37502157894736865
H 4.68366586623768 2.406862092646221 0.37502157894736865
H 3.490654527226239 3.2578288106856066 0.37502157894736865
O -1.1641823038058352 -4.330615406493152 -0.3749784210526314
H -0.2641823038058352 -4.330615406493152 -0.3749784210526314
H -1.4571936428172763 -3.479648688453767 -0.3749784210526314
O -2.008247200512461 3.866693952575673 -1.1249784210526312
H -1.1082472005124613 3.866693952575673 -1.1249784210526312
H -2.3012585395239022 4.717660670615058 -1.1249784210526312
O 3.842518285990352 -1.4033042835464027 -1.8749784210526323
H 4.742518285990352 -1.4033042835464027 -1.8749784210526323
H 3.549506946978911 -0.5523375655070175 -1.8749784210526323
O -3.3785535804944598 -1.3946200995256215 -2.6249784210526306
H -2.47855358049446 -1.3946200995256215 -2.6249784210526306
H -3.671564919505901 -0.5436533814862363 -2.6249784210526306
O 1.26153866843398 2.695877936081664 -3.3749784210526315
H 2.16153866843398 2.695877936081664 -3.3749784210526315
H 0.9685273294225389 3.546844654121049 -3.3749784210526315
O 0.5382168060318381 -1.7160170453647057 -4.1249784210526315
H 1.438216806031838 -1.7160170453647057 -4.1249784210526315
H 0.24520546702039708 -0.8650503273253205 -4.1249784210526315
O 2.3231431696440104 0.14572169816906128 6.138910467836257
H 3.2231431696440103 0.14572169816906128 6.138910467836257
H 2.0301318306325693 0.9966884162084464 6.138910467836257
O -2.462592866646771 -2.281321812055856 5.4166882456140355
H -1.5625928666467712 -2.281321812055856 5.4166882456140355
H -2.755604205658212 -1.4303550940164709 5.4166882456140355
O 0.5798293433885506 4.6243045519324895 4.694466023391813
H 1.4798293433885505 4.6243045519324895 4.694466023391813
H 0.28681800437710964 5.475271269971874 4.694466023391813
O 3.317224131766407 -3.9373869921867373 3.972243801169591
H 4.217224131766407 -3.9373869921867373 3.972243801169591
H 3.024212792754966 -3.0864202741473523 3.972243801169591
O -5.356333783512864 1.1262206585789105 3.2500215789473694
H -4.456333783512863 1.1262206585789105 3.2500215789473694
H -5.649345122524305 1.9771873766182957 3.2500215789473694
O 5.239483311995492 3.3598373016767136 2.527799356725146
H 6.139483311995493 3.3598373016767136 2.527799356725146
H 4.946471972984051 4.2108040197160985 2.527799356725146
O -1.434238834028677 -5.8843913812031285 1.805577134502924
H -0.5342388340286769 -5.8843913812031285 1.805577134502924
H -1.727250173040118 -5.033424663163744 1.805577134502924
O -2.7672119326146927 5.833455384870546 1.0833549122807018
H -1.8672119326146928 5.833455384870546 1.0833549122807018
H -3.0602232716261337 6.684422102909931 1.0833549122807018
O 6.282939966031822 -2.080585769414118 0.3611326900584799
H 7.182939966031823 -2.080585769414118 0.3611326900584799
H 5.989928627020381 -1.2296190513747327 0.3611326900584799
O -5.812185939032463 -2.330564658639793 -0.36108953216374223
H -4.9121859390324625 -2.330564658639793 -0.36108953216374223
H -6.105197278043904 -1.4795979406004076 -0.36108953216374223
O 2.9032466417352376 5.950650935122956 -1.0833117543859645
H 3.8032466417352375 5.950650935122956 -1.0833117543859645
H 2.6102353027237966 6.801617653162341 -1.0833117543859645
O 2.0555677862730866 -5.812264973474692 -1.8055339766081866
H 2.9555677862730865 -5.812264973474692 -1.8055339766081866
H 1.7625564472616455 -4.961298255435307 -1.8055339766081866
O -4.9944067955158795 3.1483259456467114 -2.5277561988304087
H -4.094406795515879 3.1483259456467114 -2.5277561988304087
H -5.287418134527321 3.999292663686097 -2.5277561988304087
O 5.684650228695282 1.3544128197017744 -3.2499784210526323
H 6.584650228695282 1.3544128197017744 -3.2499784210526323
H 5.391638889683841 2.20537953774116 -3.2499784210526323
O -2.772283675713661 -4.06324334205804 -3.9722006432748533
H -1.872283675713661 -4.06324334205804 -3.9722006432748533
H -3.065295014725102 -3.2122766240186547 -3.9722006432748533
O -0.3909769578211301 4.604240181975993 -4.694422865497076
H 0.50902304217887 4.604240181975993 -4.694422865497076
H -0.6839882968325711 5.455206900015378 -4.694422865497076
O 2.9341726578509144 -2.1697828779584003 -5.4166450877192975
H 3.8341726578509143 -2.1697828779584003 -5.4166450877192975
H 2.6411613188394734 -1.3188161599190151 -5.4166450877192975
O -1.9477567802583833 0.05745185841287202 -6.13886730994152
H -1.0477567802583834 0.05745185841287202 -6.13886730994152
H -2.2407681192698243 0.9084185764522572 -6.13886730994152



