%chk=Fe_3_TPSSh_3_6.chk
#p TPSSH 6-31+G(2df,p) scf=(maxcycles=500,xqc,maxconventional=50) scrf=(cpcm,solvent=water)

Fe_3_TPSSh_solvated_radius_4_solvated_radius_6

3 6
Fe        -0.00004       -0.00002        0.00050
O          0.42888       -1.68814        1.06378
H          0.91529       -1.73350        1.91101
O          1.76072       -0.18667       -1.01501
H          2.09614        0.41477       -1.70944
O         -0.93567       -1.13535       -1.41427
H         -1.88046       -1.38773       -1.42503
O         -0.43471        1.68572       -1.06515
H         -0.20225        2.60375       -0.82094
O         -1.76004        0.19360        1.01515
H         -2.09200       -0.39628        1.72111
O          0.94094        1.13092        1.41456
H          1.88783        1.37530        1.42532
H          0.53071        1.52902        2.20809
H          2.42705       -0.89290       -0.89795
H          0.18538       -2.60369        0.82103
H         -2.42971        0.89453        0.88553
H         -0.52232       -1.52930       -2.20825
H         -0.91539        1.72599       -1.91590
O 1.7984552422949016 1.0526315789308914e-06 4.124691578947369
H 2.6984552422949015 1.0526315789308914e-06 4.124691578947369
H 1.5054439032834606 0.8509677706709641 4.124691578947369
O -2.1947380893505533 -2.0105756954789813 3.3746915789473686
H -1.2947380893505533 -2.0105756954789813 3.3746915789473686
H -2.4877494283619943 -1.1596089774395961 3.3746915789473686
O 0.319563630775922 3.641053902967989 2.624691578947368
H 1.2195636307759221 3.641053902967989 2.624691578947368
H 0.026552291764480984 4.4920206210073745 2.624691578947368
O 2.4890000612183547 -3.246434746043323 1.8746915789473684
H 3.3890000612183546 -3.246434746043323 1.8746915789473684
H 2.1959887222069137 -2.395468028003938 1.8746915789473684
O -4.290482874536448 0.7589303197892207 1.1246915789473684
H -3.3904828745364477 0.7589303197892207 1.1246915789473684
H -4.583494213547889 1.6098970378286057 1.1246915789473684
O 3.7837106030797854 2.406876303172537 0.3746915789473687
H 4.683710603079786 2.406876303172537 0.3746915789473687
H 3.4906992640683443 3.2578430212119223 0.3746915789473687
O -1.16413756696373 -4.330601195966836 -0.37530842105263135
H -0.2641375669637299 -4.330601195966836 -0.37530842105263135
H -1.457148905975171 -3.4796344779274513 -0.37530842105263135
O -2.0082024636703557 3.866708163101989 -1.1253084210526312
H -1.1082024636703558 3.866708163101989 -1.1253084210526312
H -2.3012138026817968 4.717674881141374 -1.1253084210526312
O 3.8425630228324574 -1.4032900730200868 -1.8753084210526323
H 4.742563022832457 -1.4032900730200868 -1.8753084210526323
H 3.5495516838210164 -0.5523233549807016 -1.8753084210526323
O -3.3785088436523543 -1.3946058889993056 -2.6253084210526305
H -2.4785088436523544 -1.3946058889993056 -2.6253084210526305
H -3.6715201826637953 -0.5436391709599204 -2.6253084210526305
O 1.2615834052760853 2.6958921466079797 -3.3753084210526314
H 2.1615834052760854 2.6958921466079797 -3.3753084210526314
H 0.9685720662646442 3.5468588646473647 -3.3753084210526314
O 0.5382615428739435 -1.7160028348383898 -4.125308421052631
H 1.4382615428739434 -1.7160028348383898 -4.125308421052631
H 0.24525020386250246 -0.8650361167990046 -4.125308421052631
O 2.3231879064861154 0.14573590869537706 6.138580467836257
H 3.2231879064861153 0.14573590869537706 6.138580467836257
H 2.0301765674746743 0.9967026267347623 6.138580467836257
O -2.4625481298046656 -2.2813076015295404 5.416358245614036
H -1.5625481298046657 -2.2813076015295404 5.416358245614036
H -2.7555594688161067 -1.4303408834901552 5.416358245614036
O 0.5798740802306559 4.624318762458805 4.694136023391813
H 1.479874080230656 4.624318762458805 4.694136023391813
H 0.2868627412192149 5.47528548049819 4.694136023391813
O 3.3172688686085126 -3.9373727816604216 3.9719138011695914
H 4.217268868608513 -3.9373727816604216 3.9719138011695914
H 3.0242575295970715 -3.0864060636210366 3.9719138011695914
O -5.356289046670758 1.1262348691052264 3.24969157894737
H -4.456289046670758 1.1262348691052264 3.24969157894737
H -5.649300385682199 1.9772015871446116 3.24969157894737
O 5.239528048837598 3.3598515122030292 2.5274693567251467
H 6.139528048837598 3.3598515122030292 2.5274693567251467
H 4.946516709826157 4.210818230242414 2.5274693567251467
O -1.4341940971865716 -5.884377170676813 1.8052471345029244
H -0.5341940971865716 -5.884377170676813 1.8052471345029244
H -1.7272054361980127 -5.033410452637428 1.8052471345029244
O -2.767167195772587 5.833469595396862 1.0830249122807023
H -1.8671671957725873 5.833469595396862 1.0830249122807023
H -3.0601785347840282 6.684436313436247 1.0830249122807023
O 6.282984702873928 -2.080571558887802 0.3608026900584804
H 7.182984702873928 -2.080571558887802 0.3608026900584804
H 5.989973363862487 -1.229604840848417 0.3608026900584804
O -5.812141202190357 -2.330550448113477 -0.36141953216374173
H -4.912141202190357 -2.330550448113477 -0.36141953216374173
H -6.105152541201798 -1.479583730074092 -0.36141953216374173
O 2.903291378577343 5.950665145649272 -1.083641754385964
H 3.803291378577343 5.950665145649272 -1.083641754385964
H 2.610280039565902 6.801631863688657 -1.083641754385964
O 2.055612523115192 -5.812250762948376 -1.805863976608186
H 2.955612523115192 -5.812250762948376 -1.805863976608186
H 1.762601184103751 -4.961284044908991 -1.805863976608186
O -4.994362058673774 3.148340156173027 -2.528086198830408
H -4.094362058673774 3.148340156173027 -2.528086198830408
H -5.287373397685215 3.9993068742124125 -2.528086198830408
O 5.684694965537387 1.3544270302280903 -3.250308421052632
H 6.584694965537388 1.3544270302280903 -3.250308421052632
H 5.391683626525946 2.2053937482674755 -3.250308421052632
O -2.7722389388715554 -4.063229131531724 -3.972530643274853
H -1.8722389388715555 -4.063229131531724 -3.972530643274853
H -3.0652502778829964 -3.212262413492339 -3.972530643274853
O -0.3909322209790248 4.604254392502309 -4.694752865497076
H 0.5090677790209752 4.604254392502309 -4.694752865497076
H -0.6839435599904657 5.455221110541694 -4.694752865497076
O 2.93421739469302 -2.1697686674320846 -5.4169750877192975
H 3.83421739469302 -2.1697686674320846 -5.4169750877192975
H 2.641206055681579 -1.3188019493926995 -5.4169750877192975
O -1.947712043416278 0.057466068939187806 -6.13919730994152
H -1.0477120434162779 0.057466068939187806 -6.13919730994152
H -2.240723382427719 0.908432786978573 -6.13919730994152



