%chk=Fe_3_wB97_3_6.chk
#p wB97 6-31+G(2df,p) scf=(maxcycles=500,xqc,maxconventional=50) scrf=(cpcm,solvent=water)

Fe_3_wB97_solvated_radius_4_solvated_radius_6

3 6
Fe         0.00000       -0.00022       -0.00006
O         -0.04233        0.80241        1.87013
H         -0.49983        0.43329        2.64788
O         -1.67592        1.04795       -0.48704
H         -2.13585        1.03689       -1.34657
O          1.15508        1.54976       -0.63859
H          2.12928        1.58627       -0.63168
O          0.04468       -0.80148       -1.87053
H         -0.38816       -1.62681       -2.15682
O          1.67485       -1.04851        0.48963
H          2.13286       -1.03692        1.35019
O         -1.15636       -1.54972        0.63652
H         -2.13060       -1.58511        0.62863
H         -0.83936       -2.39460        1.00551
H         -2.16791        1.65465        0.09632
H          0.39163        1.62773        2.15472
H          2.16795       -1.65581       -0.09216
H          0.83676        2.39386       -1.00822
H          0.50319       -0.43107       -2.64708
O 1.7984347159791123 0.00013473684210524891 4.125041052631579
H 2.698434715979112 0.00013473684210524891 4.125041052631579
H 1.5054233769676713 0.8511014548814905 4.125041052631579
O -2.194758615666343 -2.010442011268455 3.375041052631579
H -1.294758615666343 -2.010442011268455 3.375041052631579
H -2.487769954677784 -1.1594752932290697 3.375041052631579
O 0.31954310446013257 3.6411875871785155 2.6250410526315786
H 1.2195431044601326 3.6411875871785155 2.6250410526315786
H 0.02653176544869157 4.492154305217901 2.6250410526315786
O 2.488979534902565 -3.2463010618327965 1.8750410526315788
H 3.388979534902565 -3.2463010618327965 1.8750410526315788
H 2.195968195891124 -2.3953343437934116 1.8750410526315788
O -4.290503400852237 0.759064003999747 1.1250410526315788
H -3.390503400852237 0.759064003999747 1.1250410526315788
H -4.583514739863678 1.6100307220391321 1.1250410526315788
O 3.7836900767639956 2.4070099873830633 0.3750410526315792
H 4.6836900767639955 2.4070099873830633 0.3750410526315792
H 3.4906787377525546 3.2579767054224487 0.3750410526315792
O -1.1641580932795192 -4.33046751175631 -0.37495894736842084
H -0.2641580932795192 -4.33046751175631 -0.37495894736842084
H -1.4571694322909603 -3.479500793716925 -0.37495894736842084
O -2.0082229899861455 3.8668418473125152 -1.1249589473684207
H -1.1082229899861455 3.8668418473125152 -1.1249589473684207
H -2.3012343289975865 4.7178085653519 -1.1249589473684207
O 3.8425424965166677 -1.4031563888095606 -1.8749589473684218
H 4.742542496516668 -1.4031563888095606 -1.8749589473684218
H 3.5495311575052266 -0.5521896707701754 -1.8749589473684218
O -3.378529369968144 -1.3944722047887794 -2.62495894736842
H -2.478529369968144 -1.3944722047887794 -2.62495894736842
H -3.671540708979585 -0.5435054867493943 -2.62495894736842
O 1.261562878960296 2.696025830818506 -3.374958947368421
H 2.161562878960296 2.696025830818506 -3.374958947368421
H 0.9685515399488549 3.546992548857891 -3.374958947368421
O 0.5382410165581539 -1.7158691506278636 -4.124958947368421
H 1.438241016558154 -1.7158691506278636 -4.124958947368421
H 0.24522967754671293 -0.8649024325884784 -4.124958947368421
O 2.323167380170326 0.14586959290590337 6.138929941520468
H 3.223167380170326 0.14586959290590337 6.138929941520468
H 2.030156041158885 0.9968363109452886 6.138929941520468
O -2.4625686561204554 -2.281173917319014 5.4167077192982465
H -1.5625686561204555 -2.281173917319014 5.4167077192982465
H -2.7555799951318964 -1.4302071992796288 5.4167077192982465
O 0.5798535539148664 4.6244524466693315 4.694485497076024
H 1.4798535539148663 4.6244524466693315 4.694485497076024
H 0.2868422149034254 5.4754191647087165 4.694485497076024
O 3.317248342292723 -3.937239097449895 3.972263274853802
H 4.217248342292723 -3.937239097449895 3.972263274853802
H 3.0242370032812818 -3.0862723794105102 3.972263274853802
O -5.356309572986548 1.1263685533157526 3.2500410526315804
H -4.456309572986548 1.1263685533157526 3.2500410526315804
H -5.6493209119979895 1.9773352713551378 3.2500410526315804
O 5.239507522521809 3.3599851964135556 2.527818830409357
H 6.139507522521809 3.3599851964135556 2.527818830409357
H 4.946496183510368 4.210951914452941 2.527818830409357
O -1.4342146235023612 -5.8842434864662865 1.805596608187135
H -0.5342146235023612 -5.8842434864662865 1.805596608187135
H -1.7272259625138022 -5.0332767684269015 1.805596608187135
O -2.767187722088377 5.833603279607388 1.083374385964913
H -1.867187722088377 5.833603279607388 1.083374385964913
H -3.060199061099818 6.684569997646773 1.083374385964913
O 6.2829641765581385 -2.080437874677276 0.361152163742691
H 7.182964176558139 -2.080437874677276 0.361152163742691
H 5.9899528375466975 -1.2294711566378906 0.361152163742691
O -5.8121617285061475 -2.3304167639029507 -0.36107005847953116
H -4.912161728506147 -2.3304167639029507 -0.36107005847953116
H -6.105173067517589 -1.4794500458635655 -0.36107005847953116
O 2.9032708522615533 5.9507988298597985 -1.0832922807017533
H 3.8032708522615533 5.9507988298597985 -1.0832922807017533
H 2.6102595132501123 6.801765547899183 -1.0832922807017533
O 2.0555919967994023 -5.81211707873785 -1.8055145029239754
H 2.955591996799402 -5.81211707873785 -1.8055145029239754
H 1.7625806577879612 -4.961150360698465 -1.8055145029239754
O -4.994382584989564 3.1484738403835535 -2.5277367251461977
H -4.094382584989564 3.1484738403835535 -2.5277367251461977
H -5.287393924001005 3.999440558422939 -2.5277367251461977
O 5.684674439221597 1.3545607144386165 -3.2499589473684214
H 6.5846744392215975 1.3545607144386165 -3.2499589473684214
H 5.391663100210156 2.205527432478002 -3.2499589473684214
O -2.772259465187345 -4.0630954473211975 -3.9721811695906424
H -1.8722594651873452 -4.0630954473211975 -3.9721811695906424
H -3.065270804198786 -3.2121287292818126 -3.9721811695906424
O -0.39095274729481433 4.604388076712835 -4.694403391812865
H 0.5090472527051857 4.604388076712835 -4.694403391812865
H -0.6839640863062553 5.45535479475222 -4.694403391812865
O 2.93419686837723 -2.1696349832215582 -5.416625614035087
H 3.83419686837723 -2.1696349832215582 -5.416625614035087
H 2.641185529365789 -1.318668265182173 -5.416625614035087
O -1.9477325697320675 0.05759975314971412 -6.138847836257309
H -1.0477325697320676 0.05759975314971412 -6.138847836257309
H -2.2407439087435086 0.9085664711890993 -6.138847836257309



