%chk=Fe_3_SPW91_3_6.chk
#p SPW91 6-31+G(2df,p) scf=(maxcycles=500,xqc,maxconventional=50) scrf=(cpcm,solvent=water)

Fe_3_SPW91_solvated_radius_4_solvated_radius_6

3 6
Fe         0.00004        0.00006        0.00006
O         -1.26241       -0.63375       -1.37295
H         -1.28575       -1.53932       -1.77377
O          1.23919        0.59275       -1.41188
H          2.11939        1.02577       -1.27408
O         -0.86772        1.76841       -0.01850
H         -1.62811        2.05328        0.54888
O          1.26259        0.63351        1.37300
H          1.98929        0.10398        1.78866
O         -1.23998       -0.59292        1.41112
H         -2.11970       -1.02655        1.27215
O          0.86826       -1.76810        0.01911
H          1.62786       -2.05335       -0.54913
H          0.62437       -2.53411        0.59791
H          1.09571        0.51247       -2.38872
H         -1.98876       -0.10429       -1.78931
H         -1.09790       -0.51246        2.38815
H         -0.62267        2.53500       -0.59603
H          1.28578        1.53879        1.77448
O 1.7984094528212176 -4.368421052627475e-05 4.1249552631578945
H 2.6984094528212177 -4.368421052627475e-05 4.1249552631578945
H 1.5053981138097765 0.8509230338288589 4.1249552631578945
O -2.1947838788242375 -2.0106204323210863 3.3749552631578945
H -1.2947838788242376 -2.0106204323210863 3.3749552631578945
H -2.4877952178356786 -1.1596537142817012 3.3749552631578945
O 0.3195178413022378 3.641009166125884 2.624955263157894
H 1.2195178413022378 3.641009166125884 2.624955263157894
H 0.02650650229079682 4.491975884165269 2.624955263157894
O 2.4889542717446704 -3.246479482885428 1.8749552631578947
H 3.3889542717446703 -3.246479482885428 1.8749552631578947
H 2.1959429327332294 -2.3955127648460426 1.8749552631578947
O -4.290528664010132 0.7588855829471155 1.1249552631578947
H -3.3905286640101324 0.7588855829471155 1.1249552631578947
H -4.583540003021573 1.6098523009865007 1.1249552631578947
O 3.783664813606101 2.406831566330432 0.37495526315789496
H 4.683664813606101 2.406831566330432 0.37495526315789496
H 3.49065347459466 3.2577982843698168 0.37495526315789496
O -1.164183356437414 -4.330645932808942 -0.3750447368421051
H -0.264183356437414 -4.330645932808942 -0.3750447368421051
H -1.457194695448855 -3.4796792147695568 -0.3750447368421051
O -2.00824825314404 3.866663426259884 -1.1250447368421048
H -1.10824825314404 3.866663426259884 -1.1250447368421048
H -2.301259592155481 4.717630144299269 -1.1250447368421048
O 3.842517233358773 -1.403334809862192 -1.875044736842106
H 4.7425172333587735 -1.403334809862192 -1.875044736842106
H 3.549505894347332 -0.5523680918228069 -1.875044736842106
O -3.3785546331260385 -1.3946506258414109 -2.6250447368421046
H -2.4785546331260386 -1.3946506258414109 -2.6250447368421046
H -3.6715659721374796 -0.5436839078020257 -2.6250447368421046
O 1.2615376158024012 2.6958474097658747 -3.3750447368421055
H 2.161537615802401 2.6958474097658747 -3.3750447368421055
H 0.9685262767909602 3.54681412780526 -3.3750447368421055
O 0.5382157534002592 -1.716047571680495 -4.1250447368421055
H 1.438215753400259 -1.716047571680495 -4.1250447368421055
H 0.24520441438881818 -0.8650808536411099 -4.1250447368421055
O 2.3231421170124316 0.14569117185327185 6.138844152046782
H 3.2231421170124315 0.14569117185327185 6.138844152046782
H 2.0301307780009905 0.996657889892657 6.138844152046782
O -2.46259391927835 -2.2813523383716454 5.416621929824561
H -1.56259391927835 -2.2813523383716454 5.416621929824561
H -2.755605258289791 -1.4303856203322602 5.416621929824561
O 0.5798282907569716 4.6242740256167 4.694399707602338
H 1.4798282907569718 4.6242740256167 4.694399707602338
H 0.2868169517455306 5.475240743656085 4.694399707602338
O 3.3172230791348283 -3.9374175185025266 3.9721774853801164
H 4.217223079134828 -3.9374175185025266 3.9721774853801164
H 3.0242117401233872 -3.0864508004631412 3.9721774853801164
O -5.356334836144443 1.1261901322631211 3.249955263157895
H -4.456334836144443 1.1261901322631211 3.249955263157895
H -5.649346175155884 1.9771568503025063 3.249955263157895
O 5.239482259363913 3.359806775360924 2.5277330409356717
H 6.139482259363914 3.359806775360924 2.5277330409356717
H 4.946470920352472 4.21077349340031 2.5277330409356717
O -1.434239886660256 -5.884421907518918 1.8055108187134497
H -0.5342398866602559 -5.884421907518918 1.8055108187134497
H -1.727251225671697 -5.033455189479533 1.8055108187134497
O -2.7672129852462715 5.833424858554757 1.0832885964912276
H -1.8672129852462716 5.833424858554757 1.0832885964912276
H -3.0602243242577125 6.684391576594142 1.0832885964912276
O 6.282938913400243 -2.0806162957299073 0.36106637426900556
H 7.1829389134002435 -2.0806162957299073 0.36106637426900556
H 5.989927574388802 -1.229649577690522 0.36106637426900556
O -5.812186991664042 -2.330595184955582 -0.3611558479532166
H -4.912186991664042 -2.330595184955582 -0.3611558479532166
H -6.105198330675483 -1.479628466916197 -0.3611558479532166
O 2.903245589103659 5.950620408807167 -1.0833780701754387
H 3.8032455891036587 5.950620408807167 -1.0833780701754387
H 2.6102342500922178 6.8015871268465515 -1.0833780701754387
O 2.0555667336415078 -5.812295499790482 -1.8056002923976608
H 2.9555667336415077 -5.812295499790482 -1.8056002923976608
H 1.7625553946300667 -4.961328781751097 -1.8056002923976608
O -4.994407848147459 3.148295419330922 -2.527822514619883
H -4.094407848147458 3.148295419330922 -2.527822514619883
H -5.2874191871589 3.999262137370307 -2.527822514619883
O 5.684649176063703 1.354382293385985 -3.250044736842107
H 6.584649176063703 1.354382293385985 -3.250044736842107
H 5.3916378370522615 2.20534901142537 -3.250044736842107
O -2.7722847283452396 -4.0632738683738285 -3.972266959064328
H -1.8722847283452397 -4.0632738683738285 -3.972266959064328
H -3.0652960673566807 -3.2123071503344436 -3.972266959064328
O -0.390978010452709 4.604209655660204 -4.694489181286551
H 0.5090219895472909 4.604209655660204 -4.694489181286551
H -0.68398934946415 5.455176373699589 -4.694489181286551
O 2.9341716052193356 -2.1698134042741897 -5.4167114035087724
H 3.8341716052193355 -2.1698134042741897 -5.4167114035087724
H 2.6411602662078946 -1.3188466862348045 -5.4167114035087724
O -1.9477578328899623 0.0574213320970826 -6.138933625730995
H -1.0477578328899622 0.0574213320970826 -6.138933625730995
H -2.240769171901403 0.9083880501364677 -6.138933625730995



