%chk=Fe_3_O3LYP_3_6.chk
#p O3LYP 6-31+G(2df,p) scf=(maxcycles=500,xqc,maxconventional=50) scrf=(cpcm,solvent=water)

Fe_3_O3LYP_solvated_radius_4_solvated_radius_6

3 6
Fe         0.00016        0.00002        0.00009
O         -1.45246        0.04667        1.46833
H         -1.47837       -0.49600        2.27533
O         -1.07372       -1.44349       -1.01539
H         -0.82616       -1.86516       -1.85658
O         -1.00362        1.47740       -1.03820
H         -0.87974        2.43787       -0.94407
O          1.45183       -0.04441       -1.46901
H          2.23814       -0.61711       -1.48956
O          1.07405        1.44223        1.01721
H          0.82461        1.86529        1.85713
O          1.00354       -1.47847        1.03681
H          0.87677       -2.43863        0.94360
H          1.69264       -1.34780        1.71114
H         -1.92362       -1.83124       -0.74336
H         -2.24039        0.61674        1.48525
H          1.92605        1.82731        0.74809
H         -1.69028        1.34522       -1.71473
H          1.47928        0.50356       -2.27255
O 1.7983689265054281 3.5059674461847047e-17 4.124975263157895
H 2.6983689265054283 3.5059674461847047e-17 4.124975263157895
H 1.505357587493987 0.8509667180393852 4.124975263157895
O -2.194824405140027 -2.01057674811056 3.3749752631578946
H -1.294824405140027 -2.01057674811056 3.3749752631578946
H -2.487835744151468 -1.159610030071175 3.3749752631578946
O 0.3194773149864484 3.6410528503364104 2.624975263157894
H 1.2194773149864484 3.6410528503364104 2.624975263157894
H 0.026465975975007383 4.492019568375795 2.624975263157894
O 2.488913745428881 -3.2464357986749017 1.8749752631578946
H 3.388913745428881 -3.2464357986749017 1.8749752631578946
H 2.19590240641744 -2.3954690806355163 1.8749752631578946
O -4.290569190325922 0.7589292671576418 1.1249752631578946
H -3.390569190325922 0.7589292671576418 1.1249752631578946
H -4.583580529337363 1.609895985197027 1.1249752631578946
O 3.7836242872903116 2.406875250540958 0.37497526315789503
H 4.6836242872903115 2.406875250540958 0.37497526315789503
H 3.4906129482788706 3.257841968580343 0.37497526315789503
O -1.1642238827532034 -4.3306022485984155 -0.375024736842105
H -0.2642238827532034 -4.3306022485984155 -0.375024736842105
H -1.4572352217646445 -3.4796355305590305 -0.375024736842105
O -2.0082887794598294 3.86670711047041 -1.125024736842105
H -1.1082887794598295 3.86670711047041 -1.125024736842105
H -2.3013001184712705 4.717673828509795 -1.125024736842105
O 3.8424767070429837 -1.4032911256516658 -1.875024736842106
H 4.742476707042984 -1.4032911256516658 -1.875024736842106
H 3.5494653680315427 -0.5523244076122806 -1.875024736842106
O -3.378595159441828 -1.3946069416308846 -2.6250247368421045
H -2.478595159441828 -1.3946069416308846 -2.6250247368421045
H -3.671606498453269 -0.5436402235914994 -2.6250247368421045
O 1.2614970894866118 2.695891093976401 -3.3750247368421054
H 2.1614970894866117 2.695891093976401 -3.3750247368421054
H 0.9684857504751707 3.5468578120157863 -3.3750247368421054
O 0.5381752270844697 -1.7160038874699688 -4.125024736842105
H 1.4381752270844697 -1.7160038874699688 -4.125024736842105
H 0.24516388807302875 -0.8650371694305836 -4.125024736842105
O 2.323101590696642 0.1457348560637981 6.138864152046782
H 3.223101590696642 0.1457348560637981 6.138864152046782
H 2.030090251685201 0.9967015741031833 6.138864152046782
O -2.4626344455941394 -2.281308654161119 5.416641929824561
H -1.5626344455941394 -2.281308654161119 5.416641929824561
H -2.7556457846055804 -1.430341936121734 5.416641929824561
O 0.5797877644411822 4.624317709827226 4.694419707602338
H 1.4797877644411823 4.624317709827226 4.694419707602338
H 0.2867764254297412 5.475284427866611 4.694419707602338
O 3.317182552819039 -3.9373738342920004 3.9721974853801165
H 4.217182552819039 -3.9373738342920004 3.9721974853801165
H 3.024171213807598 -3.086407116252615 3.9721974853801165
O -5.356375362460232 1.1262338164736474 3.249975263157895
H -4.456375362460232 1.1262338164736474 3.249975263157895
H -5.649386701471673 1.9772005345130326 3.249975263157895
O 5.239441733048124 3.3598504595714505 2.527753040935672
H 6.139441733048124 3.3598504595714505 2.527753040935672
H 4.946430394036683 4.210817177610836 2.527753040935672
O -1.4342804129760454 -5.884378223308392 1.8055308187134496
H -0.5342804129760453 -5.884378223308392 1.8055308187134496
H -1.7272917519874864 -5.033411505269007 1.8055308187134496
O -2.767253511562061 5.833468542765283 1.0833085964912275
H -1.867253511562061 5.833468542765283 1.0833085964912275
H -3.060264850573502 6.684435260804668 1.0833085964912275
O 6.282898387084454 -2.080572611519381 0.3610863742690056
H 7.182898387084454 -2.080572611519381 0.3610863742690056
H 5.989887048073013 -1.2296058934799958 0.3610863742690056
O -5.8122275179798315 -2.330551500745056 -0.36113584795321657
H -4.912227517979831 -2.330551500745056 -0.36113584795321657
H -6.1052388569912726 -1.4795847827056707 -0.36113584795321657
O 2.9032050627878694 5.950664093017693 -1.0833580701754388
H 3.8032050627878693 5.950664093017693 -1.0833580701754388
H 2.6101937237764283 6.801630811057078 -1.0833580701754388
O 2.0555262073257183 -5.812251815579955 -1.805580292397661
H 2.9555262073257182 -5.812251815579955 -1.805580292397661
H 1.7625148683142773 -4.9612850975405705 -1.805580292397661
O -4.994448374463248 3.1483391035414483 -2.527802514619883
H -4.094448374463248 3.1483391035414483 -2.527802514619883
H -5.287459713474689 3.9993058215808333 -2.527802514619883
O 5.684608649747913 1.3544259775965113 -3.2500247368421067
H 6.5846086497479135 1.3544259775965113 -3.2500247368421067
H 5.391597310736472 2.2053926956358962 -3.2500247368421067
O -2.772325254661029 -4.063230184163302 -3.9722469590643277
H -1.8723252546610292 -4.063230184163302 -3.9722469590643277
H -3.06533659367247 -3.2122634661239173 -3.9722469590643277
O -0.39101853676849846 4.604253339870731 -4.694469181286551
H 0.5089814632315015 4.604253339870731 -4.694469181286551
H -0.6840298757799395 5.4552200579101155 -4.694469181286551
O 2.934131078903546 -2.1697697200636634 -5.416691403508772
H 3.834131078903546 -2.1697697200636634 -5.416691403508772
H 2.641119739892105 -1.3188030020242782 -5.416691403508772
O -1.9477983592057517 0.05746501630760885 -6.138913625730995
H -1.0477983592057516 0.05746501630760885 -6.138913625730995
H -2.2408096982171926 0.908431734346994 -6.138913625730995



