19
Cu_1.log	Energy: -1317118.9041107
Cu         0.00000        1.05154       -0.00000
O          2.18079       -1.52462       -0.13144
H          1.52885       -1.59318       -0.86018
O          0.04389       -1.01999        1.61671
H          0.16527       -0.85607        2.55891
O          1.93366        1.13511        0.17782
H          2.47924        1.81678       -0.23093
O         -1.93366        1.13510       -0.17782
H         -2.34643        0.25407       -0.03050
O         -0.04389       -1.02001       -1.61671
H         -0.87679       -1.40128       -1.28144
O         -2.18079       -1.52462        0.13145
H         -2.86390       -2.19146        0.26385
H         -1.52885       -1.59317        0.86020
H          0.87679       -1.40126        1.28145
H          2.86390       -2.19147       -0.26382
H         -0.16526       -0.85611       -2.55891
H          2.34643        0.25407        0.03050
H         -2.47924        1.81678        0.23091
