%chk=maltolate_solvated_1_Reduced_Structure.chk
#p B3LYP empiricaldispersion=gd3 scrf=(cpcm,solvent=water) scf=(maxcycles=500,xqc,maxconventional=1000) 6-31+G(2df,p)

Reduced_Structure

-1 1
C          0.54048       -4.32559        2.05439
C         -0.23260       -3.91708        0.85115
C         -0.25832       -2.63489        0.32530
C         -1.08095       -2.40610       -0.87387
O         -1.11320       -1.24931       -1.36299
C         -1.79195       -3.52900       -1.40716
C         -1.69059       -4.74162       -0.80158
O         -0.94739       -4.95221        0.28551
O          0.38525       -1.63102        0.80524
H         -0.11350       -4.72169        2.84423
H          1.28092       -5.10396        1.82043
H          1.06209       -3.44534        2.43660
H         -2.40946       -3.40694       -2.28957
H         -2.19258       -5.64384       -1.13055
Fe         0.00083        0.00123       -0.27931
C          3.47975        2.62704        2.05763
C          3.51174        1.75586        0.85250
C          2.41379        1.09386        0.32570
C          2.62629        0.26918       -0.87506
O          1.64036       -0.33653       -1.36450
C          3.95391        0.21613       -1.40935
C          4.95377        0.90898       -0.80291
O          4.76525        1.65554        0.28595
O          1.22280        1.14870        0.80616
H          4.15404        2.25981        2.84408
H          3.77856        3.65902        1.82492
H          2.45811        2.63399        2.44348
H          4.15643       -0.37784       -2.29311
H          5.98592        0.92607       -1.13246
C         -4.01607        1.69284        2.05767
C         -3.27796        2.15841        0.85321
C         -2.15385        1.54141        0.32697
C         -1.54669        2.13946       -0.87333
O         -0.52771        1.59090       -1.36248
C         -2.16705        3.31446       -1.40764
C         -3.26881        3.83096       -0.80196
O         -3.82046        3.29279        0.28642
O         -1.60361        0.48376        0.80756
H         -4.03999        2.46117        2.84330
H         -5.05773        1.43034        1.82369
H         -3.50763        0.80727        2.44503
H         -1.75455        3.78805       -2.29105
H         -3.80174        4.71499       -1.13175
O 2.2490008160616184 -0.0004823255813954723 7.61830409203856
H 3.1490008160616183 -0.0004823255813954723 7.61830409203856
H 1.9559894770501773 0.8504843924579897 7.61830409203856
O -2.8079939906917866 -2.5727474919469056 6.947753170352179
H -1.9079939906917867 -2.5727474919469056 6.947753170352179
H -3.1010053297032276 -1.7217807739075204 6.947753170352179
O 0.41958432888541336 4.781551140429422 6.277202248665799
H 1.3195843288854134 4.781551140429422 6.277202248665799
H 0.12657298987397236 5.632517858468807 6.277202248665799
O 3.370448925810409 -4.396760473099667 5.606651326979418
H 4.270448925810409 -4.396760473099667 5.606651326979418
H 3.077437586798968 -3.5457937550602825 5.606651326979418
O -6.024772379987187 1.0651982112856513 4.936100405293038
H -5.124772379987187 1.0651982112856513 4.936100405293038
H -6.317783718998628 1.9161649293250365 4.936100405293038
O 5.550616007172133 3.53042588337281 4.265549483606657
H 6.450616007172133 3.53042588337281 4.265549483606657
H 5.257604668160692 4.3813926014121956 4.265549483606657
O -1.802873575295321 -6.706727469349912 3.5949985619202756
H -0.9028735752953211 -6.706727469349912 3.5949985619202756
H -2.095884914306762 -5.855760751310527 3.5949985619202756
O -3.332376003521741 6.415621301051796 2.9244476402338946
H -2.432376003521741 6.415621301051796 2.9244476402338946
H -3.625387342533182 7.266588019091181 2.9244476402338946
O 6.992516094133946 -2.554172809357846 2.253896718547516
H 7.8925160941339465 -2.554172809357846 2.253896718547516
H 6.699504755122505 -1.7032060913184608 2.253896718547516
O -7.019411577528787 -2.8979540258402334 1.5833457968611344
H -6.119411577528787 -2.8979540258402334 1.5833457968611344
H -7.312422916540228 -2.0469873078008485 1.5833457968611344
O 3.2559429430405205 6.957482378965699 0.9127948751747543
H 4.155942943040521 6.957482378965699 0.9127948751747543
H 2.9629316040290794 7.808449097005084 0.9127948751747543
O 2.307782969380444 -7.358362074175585 0.24224395348837252
H 3.207782969380444 -7.358362074175585 0.24224395348837252
H 2.014771630369003 -6.5073953561362 0.24224395348837252
O -6.646756783493074 3.851393835584177 -0.42830696819800773
H -5.7467567834930735 3.851393835584177 -0.42830696819800773
H -6.939768122504515 4.702360553623562 -0.42830696819800773
O 7.416607271168789 1.6300589399405718 -1.0988578898843895
H 8.316607271168788 1.6300589399405718 -1.0988578898843895
H 7.123595932157348 2.481025657979957 -1.0988578898843895
O -4.281544777408841 -6.090403562336859 -1.769408811570771
H -3.3815447774088407 -6.090403562336859 -1.769408811570771
H -4.574556116420282 -5.239436844297474 -1.769408811570771
O -0.9292061294844989 7.169401443808828 -2.4399597332571497
H -0.029206129484498855 7.169401443808828 -2.4399597332571497
H -1.22221746849594 8.020368161848213 -2.4399597332571497
O 5.309880386789685 -4.475735497097383 -3.1105106549435306
H 6.209880386789686 -4.475735497097383 -3.1105106549435306
H 5.016869047778244 -3.624768779057998 -3.1105106549435306
O -6.573057180766489 -0.2722949334422761 -3.781061576629913
H -5.673057180766489 -0.2722949334422761 -3.781061576629913
H -6.86606851977793 0.578671784597109 -3.781061576629913
O 4.336666922667013 4.315175368997832 -4.451612498316293
H 5.2366669226670135 4.315175368997832 -4.451612498316293
H 4.043655583655572 5.166142087037217 -4.451612498316293
O -0.25598024317407303 -5.534229083299602 -5.122163420002672
H 0.6440197568259269 -5.534229083299602 -5.122163420002672
H -0.548991582185514 -4.683262365260217 -5.122163420002672
O -3.0757645336546515 3.685197281696644 -5.792714341689055
H -2.1757645336546516 3.685197281696644 -5.792714341689055
H -3.3687758726660926 4.536163999736029 -5.792714341689055
O 3.7738942250778837 -0.5082672849946516 -6.463265263375437
H 4.673894225077884 -0.5082672849946516 -6.463265263375437
H 3.4808828860664427 0.3426994330447336 -6.463265263375437
O -1.8462846864324545 -1.2850127801492301 -7.133816185061815
H -0.9462846864324544 -1.2850127801492301 -7.133816185061815
H -2.1392960254438953 -0.434046062109845 -7.133816185061815


