%chk=maltolate_solvated_2_optimized_Oxidized_Structure.chk
#p B3LYP empiricaldispersion=gd3 scrf=(cpcm,solvent=water) scf=(maxcycles=500,xqc,maxconventional=1000) 6-31+G(2df,p)

Oxidized_Structure

0 2
C            0.54047999814466       -4.32559000017608        2.05439000410394
C           -0.23260000055680       -3.91708000050061        0.85114999822860
C           -0.25832000002595       -2.63489000033832        0.32529999925374
C           -1.08094999988054       -2.40610000008344       -0.87387000151882
O           -1.11320000060116       -1.24930999967260       -1.36299000037235
C           -1.79194999878383       -3.52899999794580       -1.40716000213624
C           -1.69058999939914       -4.74161999813524       -0.80158000308274
O           -0.94739000117054       -4.95220999961187        0.28550999554397
O            0.38524999937248       -1.63101999942373        0.80523999925650
H           -0.11349999936438       -4.72168999980269        2.84423000027399
H            1.28091999999775       -5.10395999942079        1.82042999975697
H            1.06209000018830       -3.44533999895178        2.43660000013303
H           -2.40945999871290       -3.40694000028359       -2.28956999795900
H           -2.19257999914806       -5.64383999910221       -1.13055000038765
Fe           0.00083000051115        0.00122999987341       -0.27931000040714
C            3.47975000069115        2.62703999915698        2.05762999547725
C            3.51174000024245        1.75586000099757        0.85250000213485
C            2.41379000019324        1.09386000145104        0.32570000049620
C            2.62629000136208        0.26918000041061       -0.87506000000808
O            1.64036000076442       -0.33653000022784       -1.36450000013664
C            3.95391000114439        0.21612999992812       -1.40935000472519
C            4.95376999864013        0.90898000194503       -0.80290999536313
O            4.76525000058825        1.65553999917079        0.28594999822958
O            1.22280000025378        1.14870000039291        0.80615999984989
H            4.15404000038674        2.25981000033507        2.84408000203969
H            3.77856000014610        3.65902000029912        1.82491999990222
H            2.45810999983444        2.63398999999254        2.44348000015837
H            4.15642999997068       -0.37783999941348       -2.29311000140802
H            5.98592000014998        0.92606999998403       -1.13246000048442
C           -4.01607000004421        1.69283999903736        2.05767000149678
C           -3.27795999908492        2.15840999923935        0.85321000012617
C           -2.15384999989387        1.54140999998857        0.32696999871557
C           -1.54669000078459        2.13946000117043       -0.87332999993842
O           -0.52771000049953        1.59089999941480       -1.36247999995907
C           -2.16704999808674        3.31445999902422       -1.40763999849262
C           -3.26880999976074        3.83096000049232       -0.80195999553404
O           -3.82045999995113        3.29278999968643        0.28641999725625
O           -1.60360999983051        0.48375999986315        0.80755999949455
H           -4.03999000000221        2.46116999963899        2.84329999964963
H           -5.05772999936618        1.43033999979483        1.82369000045412
H           -3.50762999924670        0.80727000008993        2.44502999986902
H           -1.75455000041825        3.78805000026760       -2.29105000105615
H           -3.80173999986655        4.71498999960818       -1.13174999960361
O            0.41722112461803        1.45026041018290        7.04319428637464
H            0.22011239833143        1.35242664843003        6.10584088273699
H            0.78513018613113        0.61180225406494        7.33759514283666
O           -2.92094196782407       -2.34071683086706        6.89367991060281
H           -3.40183632967171       -3.17283577966013        6.92698758269432
H           -2.60805381975580       -2.23505943531708        5.98937467358481
O            0.19489422109777        6.35992172769143        4.78758846851274
H           -0.36803444128486        5.75339750826563        4.29613853157809
H            0.78114278682300        5.82139781035634        5.32749143911240
O            2.60856656148752       -4.10380719100799        7.15362333626303
H            1.67683569867380       -3.95774446565612        6.96165484625648
H            2.94609956272494       -4.69336039572301        6.47167685144649
O           -7.76796136768848        0.56254632639197        5.83379802390907
H           -6.96766682010333        0.04085378800375        5.71437000296750
H           -7.51777530944881        1.48677203212497        5.73676743208370
O            5.68038654540803        2.24006384345596        5.77085659119979
H            5.64869804374481        3.17025890706829        6.04248282970885
H            5.13097660024666        1.76320646321653        6.40117870016456
O           -1.34123286377906       -6.48663251624328        4.36038196066522
H           -0.87858270962454       -7.21521552564537        4.78534154306139
H           -2.22672766986004       -6.79882706807622        4.15035420660410
O           -5.23382578684282        6.15970273851855        4.61335525894687
H           -4.91727248453267        6.59695262812366        5.42031866661441
H           -4.92782971554351        6.70657085341172        3.88307215667867
O            6.09304678149771       -2.72686008540868        3.18401808826414
H            5.77406591191403       -2.02229398255502        3.75732429082699
H            5.51055912516519       -2.74064362823791        2.41741230095745
O           -5.89487153011107       -3.74370753443678        2.98308979660585
H           -5.15665679240596       -3.51912733102171        2.40791894868970
H           -6.69311137701400       -3.41942205029604        2.55545008014754
O            4.52290880745881        8.65755407226857        2.27025709944250
H            4.45238264708765        9.29632766478840        1.55413408730792
H            3.67454940379790        8.20580971653581        2.32541662333631
O            4.85463501318838       -8.24712118575081        2.73782512437553
H            5.27030488833538       -7.38062534108085        2.68392009427827
H            4.51115707291389       -8.44884813552072        1.86156151019178
O           -6.80534038047555        3.25607342514150        0.39411009226859
H           -5.83970620043756        3.30184687922173        0.36252827035207
H           -7.09744927788175        4.04860905561427        0.85439957201493
O            8.86424910488012       -0.57036302229262       -1.26656529194533
H            8.80869271131910       -1.08698062253434       -0.45591590531692
H            9.55662971652898        0.08419910278913       -1.12945892462051
O           -2.69667499280464       -7.46562143407860       -2.82600587009248
H           -2.01282959283465       -7.70821095020264       -3.45831915535335
H           -3.53886511006438       -7.54908304919684       -3.28407837221541
O            0.51892658873226        9.12544999637617       -1.06533429735330
H            1.10510736224207        9.44982287741415       -1.76709789787253
H            0.36151077970001        8.19473516762292       -1.25576544567676
O            4.95680480856064       -5.27915748243321       -1.58764847747362
H            5.48797562495083       -4.79423288525622       -2.22695455756928
H            4.10781619692271       -4.82949806794191       -1.53482876683170
O           -6.12630047188089       -0.13570222978993       -3.65916983341199
H           -5.19435900413819       -0.06814931094395       -3.42689948912619
H           -6.62426278747286        0.00908937956457       -2.84884685620989
O            2.60898415581448        4.62869654323602       -4.19801128936732
H            2.25905906923954        3.78587807280323       -4.50397976295821
H            2.60654849726038        4.59401056793178       -3.23670808388688
O            0.23086722311084       -4.67833690739478       -6.46682410916379
H            0.70444651284401       -4.55871172803527       -5.63756015478578
H           -0.50038395785849       -4.05278248453806       -6.45925636985304
O           -2.64238619328660        2.82118145440648       -7.12152824160856
H           -2.00833856678791        2.30773366892864       -6.60997334753803
H           -3.38434562269385        3.01052896726765       -6.53942691709796
O            3.87353190540599       -0.41524573282602       -7.58442620488164
H            4.18738503842195        0.14769858335240       -6.87005667799336
H            3.08406943120812       -0.86115757867566       -7.26091146602734
O            0.17309392579770       -0.46542631811049       -3.72494295542749
H            0.88021004601511       -0.36073029298773       -3.06750800815557
H           -0.58149324030870       -0.58834442871652       -3.13093057285984
O            4.36357330519060        2.23437203830635       11.15835275944180
H            5.20127038971704        1.76629322688153       11.08476761963165
H            3.67457928202654        1.61068472541967       10.90892213294271
O           -0.55503329988819       -2.86317184955548       11.64707803857853
H            0.10565767519941       -2.42872886647928       11.09793046333403
H           -1.41715183854469       -2.60616141362328       11.30514999051013
O            0.03481405549444        5.62049706782791       10.05554384874314
H            0.91068348050986        5.23005279287321        9.97114973996103
H           -0.58218599207365        4.89298379521388       10.18391238279670
O            4.25198904727274       -2.39811467947568        8.73132877289776
H            4.70801648622765       -3.02736771831097        9.29791410184139
H            3.67615539936829       -2.92865307177208        8.15688928217046
O           -4.42020992005535        1.99221024556097        9.74953301773444
H           -3.84161695484938        1.77410372982369        9.01177772990014
H           -5.09784186297964        1.30986978149083        9.78565019445651
O            5.39625609346034        4.96373223668147        6.65703702437585
H            5.10319872578827        5.27237161672795        7.52041541648157
H            5.44412545115219        5.73245290999993        6.08076061160654
O            0.08576146638609       -8.08840135974055        9.41731715831988
H            0.91860268997300       -8.20112501037433        8.95013588874517
H            0.13607060848398       -7.24708255083034        9.88311322731090
O           -4.14656903642786        7.57372994066258        6.84196509217992
H           -3.57836383641051        7.14256363574177        7.48859124294198
H           -3.86275837053248        8.49226417678900        6.78575383731780
O            9.29694296586934       -1.79956690935454        7.58506466455478
H            8.95920386673326       -2.54317625591966        7.07579903988789
H            8.61093870266109       -1.12404187827264        7.58171747302121
O           -9.38452232131091       -4.61098549451911        7.18303285830700
H           -8.72155452276069       -4.92189157645927        6.55795013078289
H           -9.49625154187605       -3.66766188618317        7.02700516284276
O            3.15656176575549        9.59417325329883        7.67274919886338
H            3.03588788047215        9.67815132820882        6.72062670769514
H            2.33111195497426        9.25300459688503        8.03086738419355
O            3.44268883828560       -9.15168301786229        5.05510019796565
H            2.95755607003830       -9.91219360411517        4.72188974355485
H            3.98149020649133       -8.83281757176422        4.31323362553685
O           -8.80745733995473        5.43087002728638        8.73944119047370
H           -7.95035321626186        5.09233038179409        9.01619792741426
H           -8.71060539970673        5.72940064969715        7.82956435272107
O           10.59250608099407        1.05791494384433        3.32250139791378
H           11.11618520431597        0.71957030541024        4.05483588709117
H            9.68532503272899        1.13084334750383        3.63626342698200
O           -5.62383769674706       -8.95575109098593        1.66526890582487
H           -4.93836659656823       -8.95564327245880        0.98950480138085
H           -6.20668450539888       -8.21464662059249        1.47170576153634
O           -2.59617160993975       10.72577170633871        2.69945474202160
H           -1.90080610063117       10.08057768348643        2.86208211082513
H           -2.29639638803656       11.27904583879175        1.97119959351555
O            9.82643384857036       -5.77650384980834        0.18240331494744
H            9.38907139940144       -6.43203429108644       -0.36976773619500
H            9.18882625854023       -5.50026018206854        0.84874526392021
O          -10.04311506014234       -0.58079382243711        0.65900292460547
H           -9.82782907666313       -0.23257812174239        1.53021350707356
H          -10.25679847087628        0.17392054369701        0.10179887575395
O            8.39293384132399        5.13621123814416       -0.08935715417567
H            8.61481070454162        4.40850919081999        0.50044328317628
H            7.69946390918460        5.64484561271181        0.34290695907186
O            0.38792654002402      -10.27381089412707        0.51471077864799
H            0.46105393907708      -10.26557490258319       -0.44478629027634
H           -0.09547362596042       -9.47965538348228        0.76494040580648
O           -4.34620570435919        7.11267982418224       -1.45303312692996
H           -4.20579757854722        7.75754604951425       -0.75293975387901
H           -4.26662816062874        7.58384838369821       -2.28817262089010
O            8.89123773586900       -1.97127366072940       -3.76429977418120
H            9.49952460838369       -2.68337609440641       -3.54282535325873
H            8.78198177381113       -1.44908436455293       -2.95222167237415
O           -7.69450783764430       -5.06164139753411       -1.76101753337081
H           -6.88834383867680       -4.58805174616920       -1.99031463996544
H           -8.39455813219791       -4.40556031716472       -1.68686501038253
O            2.16939128945253        9.86622334074704       -3.28542077272136
H            2.77984764578169        9.23689731920851       -3.68353516767191
H            1.80992806436711       10.39950926920473       -4.00108901344668
O            2.38225924173297       -9.16558107758128       -4.67982409037697
H            3.08907923444407       -8.65461531811790       -4.27221856905341
H            2.30722971731284       -8.86051632546323       -5.58960437509726
O           -7.64810476596689        4.68106812723064       -5.06158263344884
H           -7.87335551531543        3.80770875296333       -5.39709654699975
H           -7.32507186049109        4.56141141761973       -4.16256708331353
O            7.54649073802084        3.35368151324030       -5.38123941750871
H            7.87596381197865        2.46385538432955       -5.22053691327597
H            7.37364423629964        3.74896396641528       -4.52091728090994
O           -3.84925854440515       -7.61015727108032       -7.95506159490852
H           -2.93593487237688       -7.64320822349344       -8.25696622243572
H           -4.14940173837920       -6.70275196289021       -8.06972914565283
O           -0.08005275422284        7.75928745566175       -7.35836007568598
H            0.50795404910801        7.29168443307120       -7.95984408495109
H           -0.48704478357476        7.09599311126161       -6.79251858370743
O            5.50913076734091       -5.36982492074352       -6.90470760913949
H            6.07119499771130       -4.59266627488867       -6.82004567119863
H            4.88575682987982       -5.18886463151290       -7.61557922126643
O           -4.15336898403809       -2.02186579522547       -8.63800776734534
H           -3.54068380323730       -1.42543429936717       -9.07984123216184
H           -4.47244323173381       -1.56640202512566       -7.85251363418397
O            4.06624036519953        4.53850604218249       -9.46436701721939
H            4.54982349717034        3.77370830688681       -9.79181938279341
H            4.37530001893903        4.69936769382597       -8.56696652408407
O            2.53031955366974       -3.65660536203048      -11.44505465091432
H            1.81312333323774       -3.67496433777215      -10.80317914605104
H            2.76728090410114       -2.73227003811851      -11.57042952792333
O           -0.02324605202899        1.03603251022282      -11.11725844675991
H            0.55985245791774        1.44111000779748      -10.46709222895608
H           -0.74934409304218        1.64997046788378      -11.26372794887239


