%chk=maltolate_solvated_3_optimized_Reduced_Structure.chk
#p B3LYP empiricaldispersion=gd3 scrf=(cpcm,solvent=water) scf=(maxcycles=500,xqc,maxconventional=1000) 6-31+G(2df,p)

Reduced_Structure

-1 1
C            0.54047999489657       -4.32559000370283        2.05439000773737
C           -0.23260000795314       -3.91708000362653        0.85114999563584
C           -0.25832000156004       -2.63489000087697        0.32529999984676
C           -1.08095000627252       -2.40609999789584       -0.87387000047505
O           -1.11320000046194       -1.24931000313442       -1.36299000390473
C           -1.79194999635468       -3.52899999457625       -1.40715999564544
C           -1.69058999717399       -4.74162000608976       -0.80157998056605
O           -0.94738999899131       -4.95220999887566        0.28551000170650
O            0.38525000181820       -1.63102000166326        0.80523999887136
H           -0.11350000346696       -4.72168999819610        2.84423000697371
H            1.28092000092572       -5.10395999868028        1.82043000133527
H            1.06209000154010       -3.44533999772995        2.43659999790184
H           -2.40946000283998       -3.40693999963790       -2.28957000321341
H           -2.19257999244354       -5.64384000218091       -1.13054999891472
Fe           0.00082999912323        0.00122999865081       -0.27930999916739
C            3.47975000455082        2.62704000111964        2.05762996713937
C            3.51173999902991        1.75586000865784        0.85250000094916
C            2.41379000252080        1.09386000698499        0.32570000467662
C            2.62628999182577        0.26918000702166       -0.87506000898616
O            1.64036000105054       -0.33652999746390       -1.36450000045553
C            3.95391000699906        0.21612999549283       -1.40935000401801
C            4.95376999305437        0.90897999135821       -0.80290999613749
O            4.76524999625875        1.65554000032077        0.28594999161300
O            1.22279999890297        1.14870000032426        0.80615999850028
H            4.15403999880819        2.25981000254456        2.84407999624287
H            3.77856000055991        3.65902000366229        1.82492000305604
H            2.45811000245066        2.63399000026023        2.44348000265635
H            4.15642999929019       -0.37783999915812       -2.29311000622041
H            5.98591999610481        0.92607000313083       -1.13245999880649
C           -4.01607000693565        1.69283999421988        2.05766999087962
C           -3.27795999997152        2.15840999922399        0.85320999217441
C           -2.15384999742219        1.54140999928632        0.32696999461973
C           -1.54669000031770        2.13945999718387       -0.87332999630315
O           -0.52771000520377        1.59089999723358       -1.36248000190752
C           -2.16704999902092        3.31445998920268       -1.40764000085898
C           -3.26880999622655        3.83096000753233       -0.80195999360245
O           -3.82046000048727        3.29279000280879        0.28641999959242
O           -1.60360999989263        0.48375999953875        0.80755999906374
H           -4.03999000039100        2.46117000468816        2.84330000345670
H           -5.05772999929194        1.43033999963957        1.82369000074993
H           -3.50762999651981        0.80726999907706        2.44503000031947
H           -1.75455000191473        3.78804999878463       -2.29105000411461
H           -3.80173999986784        4.71499000000567       -1.13174999961874
O            0.16191915794136        0.12054144124517        6.02409903609960
H           -0.18813921496028        0.01497330269337        5.13327050423462
H            1.11741284940369        0.18222097443172        5.93195242304981
O           -3.68092126130537       -3.29783851658202        8.02954490022333
H           -4.42270034409641       -3.82139405581591        7.71154212097035
H           -3.12519855220879       -3.10814373467565        7.26687639143052
O           -0.42135336623379        5.90857819089145        4.09364401659255
H           -0.61424277022692        5.70976192239999        3.17258831459379
H           -0.55938379251835        5.09446232790573        4.58800213853113
O            2.84330717031641       -4.31141839027812        7.13012548961063
H            1.88695409109231       -4.22166742278126        7.07595946769940
H            3.11363203428442       -4.86856294737266        6.39338038110673
O           -7.90487399806039        0.62902373469911        5.85445388381124
H           -7.19392693191632        0.05259171071856        5.55805021186614
H           -7.70565754764891        1.51311758347473        5.53170699678085
O            5.48296558947346        2.44138106096885        5.55170509722507
H            5.23565231811726        3.32251784249561        5.87289857083290
H            5.41794575361757        1.85551694274060        6.31245332390557
O           -1.27413508480290       -6.51224153309346        4.51288408436973
H           -0.75825966479925       -7.26027877170744        4.82917644571781
H           -2.18389927314578       -6.81527040658208        4.43797631118901
O           -5.29075004082632        5.54013160313510        5.03739768147791
H           -5.04260142750227        5.86617773272517        5.91797425554474
H           -5.10061471229135        6.26224900954572        4.43158902850180
O            6.04108573549398       -2.59477597683345        3.17294947491102
H            5.57818809178864       -1.97742341805551        3.74736445224012
H            5.50512738932363       -2.68535047789057        2.37958913436132
O           -5.67317025344683       -3.74039243281030        3.18796435818360
H           -4.83726049907409       -3.40754560257467        2.84651889409613
H           -6.18675116145855       -4.03836949865465        2.43137183273050
O            4.62695950148636        8.58824335478206        2.64410123094020
H            4.55738851748074        9.49414748746743        2.32813067707155
H            3.76672338477918        8.17788973870922        2.51059971918590
O            4.22434858951523       -7.88187312656055        2.66887856770005
H            4.96530284798393       -7.26820313367731        2.69204568634520
H            4.21987838822910       -8.28692449533763        1.79586912329830
O           -6.82136923963250        3.18210798713878        0.49828003669805
H           -5.86226016006830        3.25305441196710        0.40027575838798
H           -7.11048034204739        3.99750101668863        0.91970902585391
O            8.79351302367807       -0.58010326891571       -1.38594573423936
H            8.79607276573022       -1.25481517535261       -0.69881291014418
H            9.47467006373211        0.05846893488550       -1.15203840417619
O           -2.51437264956515       -7.54685743088930       -2.74018725202235
H           -1.80575487313954       -7.89784597496395       -3.28871378746613
H           -3.34052009780657       -7.76897723088165       -3.18001948188905
O            0.23959907385575        8.69913602358089       -0.51912642626573
H            0.94013321487893        9.02878205056929       -1.10420332015817
H           -0.08749635647519        7.88970409791631       -0.92337490486381
O            5.33567948097140       -5.28814037057148       -1.66770204915151
H            5.81537962353248       -4.70108419660206       -2.26029010455182
H            4.48356867232520       -4.87650613790078       -1.49267068892499
O           -6.40227186816522       -0.26144331301297       -3.34889899517163
H           -5.57363754658778       -0.16640713942401       -2.86843544487479
H           -7.10688145088467       -0.25172369948356       -2.69401575165881
O            2.60517361129476        4.74197013258779       -4.03566930378263
H            2.25918885459997        3.90270977460720       -4.35521264696002
H            2.57865596469757        4.70172598478829       -3.07496678110168
O            1.10533001193005       -5.01571432209690       -5.80125793590263
H            1.47072834457679       -4.70459901632396       -4.96747652902258
H            0.25638176872930       -4.57681230424224       -5.90803209831693
O           -3.22136908972733        2.83743529267583       -6.79045947570658
H           -2.42336099131321        2.41359672818567       -6.45886569995846
H           -3.90183288164536        2.71021449991886       -6.12234164824202
O            4.28530640018710       -0.53964125179194       -7.42018505978685
H            4.96039439963925       -0.36381520669316       -6.75780082974096
H            3.43630180934490       -0.52971903125400       -6.96657628067206
O            0.13789576403087       -0.42545838435481       -3.72911657235569
H            0.84535735099040       -0.31195053543961       -3.07396655283522
H           -0.61146710435360       -0.56635640909257       -3.13224222414250
O            4.56064132304237        2.23775802783333       11.30405381221709
H            5.44723250369278        2.03861654977750       10.98737294370038
H            3.98276613132109        1.53998979191976       10.97889310600842
O            0.08790291992389       -1.26807675976240       11.38954378386108
H           -0.60001384796330       -1.88668678563156       11.65345523578880
H            0.27362779389099       -1.43516667064948       10.45977706179705
O            0.34586612734535        4.60123384645422        9.33214013631798
H            0.46964047543169        3.72294662791592        8.95936371219748
H           -0.14127448611914        4.49222069555227       10.15412303452765
O            4.44126701632194       -2.30105322979020        8.38088208266537
H            4.85264478044755       -2.76440197436668        9.11651336320389
H            3.89204385020145       -2.95955918480701        7.92561877049835
O           -3.91423364295716        1.90011397944631        8.95337521956310
H           -3.74569858007226        1.96484488296444        8.00795903091228
H           -3.39498077981473        1.15913458948054        9.27968762258756
O            4.59598651089526        4.93592902507778        6.64697453667849
H            4.66139392354721        5.22848861536483        7.56157848655477
H            3.86412406278158        5.41477151494449        6.24614434611083
O            0.68823379091536       -8.12159960137374        9.47913507312437
H            1.41944020688882       -8.46694323482907        8.95759135312638
H            1.05829776946267       -7.79344351001062       10.30432402750701
O           -4.47853105299429        6.64434666419972        7.53392389085996
H           -3.54413209739070        6.69858922188587        7.75829188640291
H           -4.95866914664613        6.53384746778685        8.36027667096345
O            9.35230520955402       -2.14753704145674        7.63801940299347
H            9.00845149129102       -2.55765271852223        6.83818423517731
H            9.02617681036285       -1.24191200706494        7.65329673824742
O          -10.53185814946845       -4.03379451016141        6.46720284244722
H          -10.59769785897704       -4.99347478067442        6.44003312921254
H           -9.79517551819072       -3.78623737368565        5.89958664439036
O            1.44086272014237        9.54168956927222        7.25389383151086
H            1.42801882025044        9.64096021862810        6.29672212288751
H            0.77823011351397        8.88024747597622        7.47609269523542
O            3.62117028556283       -9.48500267265520        4.93611313839122
H            2.90606720921818      -10.05228652355211        4.63374720261725
H            3.82389979487538       -8.89194666506841        4.19305039742601
O           -9.07225699468096        3.94487619990032        9.84792029651540
H           -9.64583092320939        3.34810977531255       10.33808963769900
H           -8.24190601139439        3.47829085752242        9.70428998318839
O           10.13139051289082        1.24751145197434        3.58861076588273
H            9.91569065586130        1.98033071042124        4.17383493750331
H            9.31261901460927        0.76497867953783        3.43810963304302
O           -5.11803423570983       -9.27265309775388        1.63067068593038
H           -4.87121747665903       -9.98913990178828        1.03806436697276
H           -5.03939443290837       -8.45448288965780        1.12987399169190
O           -3.46353587786084       10.43459751921882        2.66596937469103
H           -2.70415216877905        9.88192344421553        2.87641072103341
H           -3.34108874877950       10.74698679322253        1.76419726294126
O            9.97475003509691       -5.33539714094542        1.54426640769996
H            9.09997494222183       -5.51329162114040        1.18456867222933
H            9.88690379156369       -5.32173926101146        2.50217081022207
O           -9.88963457222826       -1.41581882099090        1.01699858694925
H           -9.37419762089358       -0.75740991784006        1.49382735091495
H          -10.79275014691287       -1.35375737333181        1.34211626290727
O            8.27230412637477        4.64230742882895       -0.50920306418374
H            8.50577471132301        4.34165508895377        0.37417010347370
H            7.58291161127502        5.30512608746203       -0.40653901156521
O            0.11481733623565      -10.47154790917928        0.78955305085988
H           -0.04699668929731      -10.78462637509039       -0.10557133204423
H           -0.20743177005838       -9.56569372891399        0.83326180244387
O           -4.62236146828585        6.85858748911296       -1.94936598817245
H           -4.79068226790029        7.64371152983914       -1.41922339934715
H           -4.94460252506670        7.04737490307639       -2.83604600523035
O            8.78485116445546       -1.45321624074560       -4.08650453910121
H            9.51184409177140       -2.08296464453098       -4.06488148648509
H            8.69623058325257       -1.11366543371736       -3.17997145150498
O           -7.55545260172864       -5.24893626513518       -1.89114180356245
H           -6.84405611702127       -4.89655154847643       -2.43452847281547
H           -8.34226938974161       -4.73178804103873       -2.08936809625651
O            2.24910157425494        9.44133949392015       -2.40403923171847
H            3.17934755948989        9.21295589457249       -2.31341972272268
H            2.06651395431457        9.50634804363742       -3.34677619711436
O            3.32726712468363       -9.43302164442035       -5.00924128183580
H            3.65231364841872       -8.82766710098024       -4.33548878971935
H            3.48216073928887       -9.01439523572759       -5.86197123777431
O           -8.60187644414741        4.48531859851630       -4.73788992588771
H           -9.53572714910400        4.26867850562170       -4.81657104692095
H           -8.29067208487118        4.08813156652641       -3.91830568158810
O            7.52253898001449        3.75946684514721       -5.59545466805046
H            7.61282925092802        3.05433744976377       -4.94700379834830
H            7.09234736383598        4.49554563382742       -5.14939465995136
O           -2.87736693191817       -8.00917545829801       -7.96926851869306
H           -1.96334716909703       -8.31006006811070       -7.96321058181886
H           -2.87641526526392       -7.09884359876075       -8.28175446488530
O           -0.64047556084256        7.51998996223844       -6.63048193072626
H           -0.16366718635658        6.88064833955135       -7.16875198356845
H           -1.11688975608505        7.02008786501057       -5.96016326945869
O            6.42843721028289       -5.45470201621627       -6.91996423494842
H            7.06652241582298       -4.73576702711511       -6.95292535087850
H            5.59502597874313       -5.10590863749196       -7.25149874205461
O           -3.51333029323024       -2.44567932665431       -7.58223331744768
H           -2.88693906140828       -1.89399308248484       -8.06109613830083
H           -3.56830842199809       -2.09648024498469       -6.68686455899703
O            3.35571140245639        4.52464528877598       -9.33228000750167
H            3.80008894526090        4.47724508524207      -10.18411940324487
H            3.91254564681793        4.06179214806950       -8.69783962164582
O            2.81457942095717       -4.08554743471303      -10.94916881514472
H            2.27063559033377       -3.76465846854678      -10.22269688198948
H            3.35190363581404       -3.34463681859647      -11.24589430762161
O            0.17643962273528        0.59246567918341      -10.55461261325572
H            1.08307903676205        0.70004529894161      -10.85853860360500
H           -0.16642006481062        1.47442071398617      -10.38109455961805
O            4.70582190130115       -2.08155120484222       14.46239590446416
H            5.07910467182116       -1.20246749761570       14.58235351073134
H            3.83530833054642       -1.96537217884280       14.06808925734874
O           -4.20986976084346       -4.61512961830559       13.02060415228952
H           -4.51661175271645       -5.37974573964730       12.52268926244376
H           -4.70985206167987       -3.85604090707442       12.70366796178974
O            3.21601052749327        7.65284026791276       12.36830853201751
H            3.42275219162732        6.71508406560495       12.30103005724717
H            2.88246565482590        7.92881848767716       11.50846104207883
O            5.43604890711039       -6.80912499763644       11.60741139546975
H            6.33314189154957       -6.61842191566561       11.31597832743746
H            5.24226824724262       -6.20371374893804       12.32953811044927
O           -8.22245012210135       -1.20233660113816       10.65344940129909
H           -7.39833419822704       -1.10640000480262       10.16525006646038
H           -8.92332314995953       -1.28915995852230        9.99954011292910
O            9.44231100153002        3.22213793757147        8.80681127436671
H           10.40362347244267        3.24867632671017        8.78453606669224
H            9.12702755850911        4.01073191596784        8.35404944578718
O           -2.09505424485144       -8.68260015727456        9.14286304155961
H           -1.13656779890844       -8.58045731951514        9.25590901649527
H           -2.45108848693635       -7.78862910966455        9.12136068845898
O           -2.51076502445222        8.11136120334913       12.11705720683783
H           -1.65390160796372        8.25711639233019       12.53012645949524
H           -3.17940853532907        8.44567973098787       12.72234138300186
O            9.63831090023810       -3.61258898258054       10.06206140119768
H           10.45585114187185       -3.27655606945623       10.44016517936280
H            9.51998033120388       -3.13961941662832        9.22101967503650
O          -12.73847597919492       -2.36663128073137        7.18226337347147
H          -11.97717819753009       -2.88346896207505        6.87156961015700
H          -12.94183857390881       -2.70073924378859        8.06114201618882
O            6.61013362707191        9.56976844735208        7.81243870920450
H            6.09499906820117        9.65227630203342        7.00341090117601
H            6.02574176223083        9.80017462257065        8.54119931160349
O            6.92257375726075      -11.40126368760352        8.86443325424331
H            6.60312825978662      -11.43457198008844        7.95713674587553
H            6.28425006856095      -10.88481051169000        9.36672898665372
O          -10.18363696538747        5.71029808170402        7.87604646216197
H           -9.84703422055633        5.15219278928451        8.59584768443658
H           -9.43660555315506        5.86528179556915        7.28936922863594
O           14.13768533958130        4.01536418554932        5.89945784534231
H           14.18200328108210        3.30016299654494        5.25702265850436
H           13.49840079280589        4.65282441255616        5.56535955786114
O           -6.74920463660373       -7.76828867678071        6.58565088273152
H           -6.28471785145653       -8.60282277811830        6.70063260206868
H           -6.85610965124992       -7.63470297690614        5.63840311403770
O           -1.78563408191742       13.97776175420687        6.74735489595264
H           -0.94113835608171       13.63159564256744        7.05320386801982
H           -2.18781863497371       13.29451835348984        6.20139222726639
O            8.16022714050614       -7.15527000158037        6.42065457701250
H            8.71639716640466       -7.27993066209417        7.19537012304107
H            7.27093938506169       -6.97313634312166        6.74070329768252
O          -12.32507391741830        2.26289034824609        4.00552573546379
H          -12.39281127393351        1.52234010187567        4.61651989053251
H          -12.01803950008644        3.01824163387195        4.51658986844362
O            9.40533701571984        6.67511031583162        4.41794143608140
H            9.51167507970166        7.60970263727965        4.61899532573385
H            8.46370306504225        6.48279537746860        4.47391802024158
O           -0.07093592434939      -14.41519277143871        4.17978090459312
H            0.68767546181100      -14.10049025384256        3.67783164802892
H           -0.83613450310436      -13.92076309315337        3.86908294001555
O           -8.53477695047492        9.40140583533919        1.36574000032862
H           -7.87410714155376        8.89518232452078        1.84868810205969
H           -8.75911846034272       10.16108034813135        1.91170402994917
O           13.45068250722274       -2.42315587852888       -0.99737500696600
H           13.13163586708812       -3.25482173155307       -1.36220157609918
H           13.30876488300532       -2.46170151782038       -0.04618743654133
O          -10.18848405370598       -6.99589738268435        2.28954791203398
H           -9.55912364647438       -7.46982136922626        1.73718996954320
H          -10.33703766412425       -6.13962572014594        1.87577298898636
O            1.35783356049028       12.94652624038812        2.83402548165380
H            1.03649132275098       12.52043511420198        2.03305997287666
H            1.01890374878159       13.84679591580895        2.83125226799396
O            8.39487484910517      -10.57101694433388        2.26268962381772
H            8.89955410345671       -9.91341542889349        2.75190327735574
H            7.81569694593579      -11.00637256259158        2.89617575513315
O          -12.13627229679100        2.75265994324820       -1.21853631185151
H          -11.37228204242807        2.85845602765779       -0.64248708825244
H          -12.90820743127224        2.68936027498719       -0.64819487828260
O           12.34533299914384        5.79693008846037       -3.52560360286776
H           12.30179688688955        5.86529519198381       -2.56690272668853
H           11.69853408110004        5.13384157801166       -3.78792911477596
O           -3.98367218725333      -12.48621962931281       -2.86138289740743
H           -3.13737514000632      -12.42755164490508       -3.31631587019758
H           -4.66105429790137      -12.23870336195521       -3.49860791920792
O           -3.23866891898635       11.32228116778169       -4.00642632411163
H           -2.37339091714225       10.97285990166484       -3.76978812102114
H           -3.44394400100180       10.99082447620927       -4.88633588761427
O           10.55950636376860       -6.62633157642219       -3.55087553377858
H           10.87357576664204       -7.13133746521684       -2.79441342406622
H            9.66689055983256       -6.93147099333651       -3.74227256939932
O          -11.51289646784135       -1.97627528015309       -4.16263440454784
H          -11.19292663313620       -1.43379908712269       -4.89033461836358
H          -11.60267024039694       -1.39774070036375       -3.39855666196445
O            7.68209957643101        8.96184130143704       -3.47572834382576
H            8.58971365649991        8.65568529812298       -3.56844401432858
H            7.39824243299735        9.27214267024206       -4.34150239207186
O            1.17693571861269      -11.29257997937616       -4.68745673375193
H            1.52024468026832      -12.08467544898207       -5.11130520959579
H            1.88252124083919      -10.62864290406089       -4.75133246092711
O           -5.80888440939256        7.83539306723577       -7.51891354212613
H           -5.60893700713338        6.89919145123509       -7.41816382920274
H           -6.73325100314830        7.95094213363122       -7.27887937119156
O           10.09201404532411        0.24241285743353       -8.86513310281246
H           10.77860300370829        0.11001379452191       -8.20440005858941
H            9.25706339441165        0.30656359454183       -8.39033129937929
O           -5.23800105593049       -9.45141181159506       -7.21545930347503
H           -4.40019586979629       -9.01012383518229       -7.42746629475780
H           -5.84341870223845       -9.22349660858603       -7.92717792388982
O            4.03563077044776        9.77867729653257       -7.58736539083540
H            4.07348401387900        8.82406749293089       -7.70555592704428
H            3.17414558672827       10.06614861081380       -7.90517766112290
O            5.97942096259090       -8.80099235869364      -10.97265296503989
H            6.58926275224745       -8.65184956827046      -10.24312096246243
H            5.40224285783093       -8.03190991463695      -11.01732785609983
O           -8.31546511029184        0.26314529424606       -8.23633711499021
H           -7.79185637580054       -0.48803672777832       -7.93967978255096
H           -7.88886403149310        1.05475206100634       -7.89192964198064
O            8.47220219339416        4.62815412993561      -11.02252672876958
H            9.26113471865376        4.16133789751097      -11.31490887865818
H            8.48716383076222        4.62801697131802      -10.06002931034723
O           -0.16099151132614       -8.41977053176688      -12.30693988564841
H            0.73831413653225       -8.09180069509673      -12.20712705373743
H           -0.69462624003486       -7.68470717372799      -12.62526200437243
O           -2.45631354280859        5.96594901616917      -11.39069847611944
H           -2.68301802042870        6.84046580682458      -11.05902658471445
H           -2.77188298929365        5.33008697424870      -10.74064630731277
O            5.47671090437581        0.65117707440429      -12.53195197253789
H            5.96392064276007        0.57140724432576      -11.70539035775443
H            5.96474810498804        1.26586701971616      -13.08805353127314
O           -2.22294031750315       -3.27030811590328      -13.18553224579417
H           -1.29069194782836       -3.03536483426554      -13.13768787692073
H           -2.69957269895541       -2.63533930870265      -12.64172474481436


