%chk=maltolate_Reduced_Structure.chk
#p B3LYP empiricaldispersion=gd3 scrf=(cpcm,solvent=water) scf=(maxcycles=500,xqc,maxconventional=1000) 6-31+G(2df,p)

Reduced_Structure

-1 1
C          0.54048       -4.32559        2.05439
C         -0.23260       -3.91708        0.85115
C         -0.25832       -2.63489        0.32530
C         -1.08095       -2.40610       -0.87387
O         -1.11320       -1.24931       -1.36299
C         -1.79195       -3.52900       -1.40716
C         -1.69059       -4.74162       -0.80158
O         -0.94739       -4.95221        0.28551
O          0.38525       -1.63102        0.80524
H         -0.11350       -4.72169        2.84423
H          1.28092       -5.10396        1.82043
H          1.06209       -3.44534        2.43660
H         -2.40946       -3.40694       -2.28957
H         -2.19258       -5.64384       -1.13055
Fe         0.00083        0.00123       -0.27931
C          3.47975        2.62704        2.05763
C          3.51174        1.75586        0.85250
C          2.41379        1.09386        0.32570
C          2.62629        0.26918       -0.87506
O          1.64036       -0.33653       -1.36450
C          3.95391        0.21613       -1.40935
C          4.95377        0.90898       -0.80291
O          4.76525        1.65554        0.28595
O          1.22280        1.14870        0.80616
H          4.15404        2.25981        2.84408
H          3.77856        3.65902        1.82492
H          2.45811        2.63399        2.44348
H          4.15643       -0.37784       -2.29311
H          5.98592        0.92607       -1.13246
C         -4.01607        1.69284        2.05767
C         -3.27796        2.15841        0.85321
C         -2.15385        1.54141        0.32697
C         -1.54669        2.13946       -0.87333
O         -0.52771        1.59090       -1.36248
C         -2.16705        3.31446       -1.40764
C         -3.26881        3.83096       -0.80196
O         -3.82046        3.29279        0.28642
O         -1.60361        0.48376        0.80756
H         -4.03999        2.46117        2.84330
H         -5.05773        1.43034        1.82369
H         -3.50763        0.80727        2.44503
H         -1.75455        3.78805       -2.29105
H         -3.80174        4.71499       -1.13175


