31
Fe_CN6_minus3_LS.log	Energy: -1430446.4153674
Fe        -0.17207       -0.12944        0.13161
C         -1.52972        0.20130        1.52289
C          1.13276       -0.52880        1.55509
C         -0.77039       -2.00687        0.05328
C          1.18537       -0.45925       -1.26171
C         -1.47037        0.30165       -1.28999
C          0.45335        1.74010        0.18881
N         -2.34781        0.41169        2.32802
N          1.92203       -0.75392        2.38479
N         -1.09992       -3.12472       -0.00703
N          2.00391       -0.66350       -2.06813
N         -2.23982        0.58518       -2.12031
N          0.83139        2.84415        0.20705
H          2.91242        4.39660       -1.27015
H          1.80318        4.27278       -0.24405
H          4.93726       -1.23546       -2.08062
H          3.60764       -1.00686       -2.77316
H          4.09195        0.81369        3.70830
H          3.28784       -0.45366        3.49741
H         -1.16984       -4.82545       -0.54656
H         -0.36248       -5.52588       -1.62150
H         -3.93787        0.80789        3.03819
H         -5.24647        1.12989        2.34413
H         -2.90276        3.00427       -3.74366
H         -3.11659        1.56082       -3.33190
O          4.04646       -0.09132        4.03262
O          4.56548       -1.20293       -2.96766
O         -1.05477       -5.71565       -0.98059
O         -4.88631        1.04585        3.23255
O         -3.47541        2.25819       -3.94737
O          2.43897        4.93661       -0.62945
