19
Cr_3_BLYP.log	Energy: -942919.0617578
Cr         0.00002       -0.00002       -0.00000
O          0.96377       -1.44771       -1.03326
H          0.65994       -1.85545       -1.87690
O          1.47082       -0.01293        1.38881
H          2.28732        0.53780        1.37071
O          1.00090        1.41314       -1.04571
H          0.90761        2.38754       -0.93556
O         -0.96397        1.44769        1.03306
H         -1.81988        1.86484        0.78067
O         -1.47061        0.01267       -1.38902
H         -2.28379       -0.54306       -1.37454
O         -1.00097       -1.41278        1.04614
H         -0.90570       -2.38729        0.93863
H         -1.66714       -1.24532        1.75216
H          1.49459       -0.57095        2.20020
H          1.81806       -1.86731       -0.77944
H         -1.49721        0.57504       -2.19732
H          1.66500        1.24626       -1.75383
H         -0.65882        1.85781        1.87507
