19
Cr_3_B3LYP.log	Energy: -942970.7905260
Cr         0.00001        0.00005        0.00005
O         -0.31195        1.97531       -0.15175
H         -0.98260        2.40841       -0.71267
O          1.48242        0.33502        1.30872
H          1.38932        0.39316        2.27824
O         -1.31492       -0.09171        1.51148
H         -1.56390       -0.89450        2.00665
O          0.31189       -1.97528        0.15186
H         -0.18433       -2.67148       -0.31837
O         -1.48223       -0.33446       -1.30885
H         -1.38859       -0.39311       -2.27829
O          1.31468        0.09111       -1.51169
H          1.56936        0.89511       -2.00233
H          1.81122       -0.66110       -1.88538
H          2.42337        0.46731        1.08690
H          0.17978        2.67128        0.32344
H         -2.42321       -0.46698       -1.08743
H         -1.81617        0.65903        1.88172
H          0.98646       -2.40825        0.70819
