19
Mn_2_HSE06.log	Energy: -1009514.8912086
Mn        -0.00003        0.00004        0.00003
O         -1.31110        1.28507       -1.19546
H         -2.19679        1.58349       -0.95747
O         -0.85629       -1.77103       -0.96402
H         -0.61770       -2.69007       -0.79491
O          1.53265        0.10991       -1.56144
H          2.23736        0.76471       -1.63069
O          1.31160       -1.28472        1.19527
H          1.11521       -1.66144        2.06110
O          0.85619        1.77084        0.96450
H          0.61771        2.68995        0.79562
O         -1.53301       -0.11015        1.56110
H         -2.23766       -0.76504        1.62995
H         -1.63366        0.48630        2.31229
H         -1.54405       -1.78240       -1.64004
H         -1.11433        1.66160       -2.06129
H          1.54391        1.78195        1.64057
H          1.63300       -0.48675       -2.31249
H          2.19733       -1.58281        0.95697
