19
Mn_2_PBE0.log	Energy: -1009488.9346246
Mn        -0.00009       -0.00016       -0.00019
O          0.42526        2.11201        0.36516
H         -0.02520        2.68923        0.99259
O          1.58763       -0.06058       -1.50033
H          2.51508       -0.27490       -1.34645
O          1.44245       -0.55734        1.54376
H          1.67101       -1.45192        1.82173
O         -0.42676       -2.11176       -0.36607
H         -1.10079       -2.64597        0.06990
O         -1.58656        0.05886        1.50152
H         -2.51447        0.27220        1.34917
O         -1.44172        0.55908       -1.54392
H         -1.66917        1.45429       -1.82071
H         -1.97168       -0.04155       -2.08070
H          1.49649        0.12144       -2.44284
H          1.09991        2.64619       -0.06988
H         -1.49373       -0.12309        2.44388
H          1.96990        0.04469        2.08161
H          0.02244       -2.68879       -0.99457
