19
Mn_2_BLYP.log	Energy: -1009888.8715974
Mn        -0.00032        0.00005        0.00026
O          1.55374       -0.46041       -1.49139
H          2.08031        0.18464       -2.00318
O         -1.52832       -0.01504       -1.58597
H         -2.48572        0.14668       -1.47459
O         -0.32168       -2.15382        0.32979
H          0.13844       -2.71924        0.98079
O         -1.55448        0.46129        1.49123
H         -1.85069        1.35038        1.76875
O          1.52864        0.01428        1.58567
H          2.48650       -0.14393        1.47216
O          0.32263        2.15365       -0.32994
H         -0.13372        2.71836       -0.98415
H          0.94985        2.72949        0.14988
H         -1.38038       -0.18419       -2.53710
H          1.84989       -1.34926       -1.76969
H          1.38170        0.17861        2.53810
H         -0.95194       -2.72905       -0.14671
H         -2.08049       -0.18328        2.00411
