19
Mn_3_HSE06.log	Energy: -1009344.1365699
Mn        -0.00011       -0.00002       -0.00006
O          0.00027       -0.02272       -1.95559
H         -0.79497       -0.02695       -2.51919
O          0.00092       -1.96093        0.02232
H          0.00783       -2.51966        0.81961
O          2.14981        0.00125        0.00015
H          2.73643        0.77516       -0.00576
O          0.00082        0.02269        1.95545
H         -0.79430        0.02603        2.51921
O         -0.00191        1.96089       -0.02290
H         -0.00732        2.53775        0.76145
O         -2.14982       -0.00113        0.00072
H         -2.73652       -0.77490        0.01272
H         -2.73702        0.77228       -0.01079
H         -0.00611       -2.53751       -0.76215
H          0.79606       -0.03110       -2.51836
H          0.00413        2.51933       -0.82034
H          2.73712       -0.77213        0.00606
H          0.79674        0.03180        2.51802
