19
Mn_3_PBE0.log	Energy: -1009317.6767923
Mn        -0.00001       -0.00005        0.00001
O          0.00036        0.00795       -1.95561
H         -0.79481        0.01017       -2.51951
O          0.00012       -1.96172       -0.00800
H         -0.00065       -2.53313        0.78046
O          2.14350        0.00036        0.00024
H          2.72974        0.77433        0.00339
O         -0.00021       -0.00818        1.95563
H         -0.79546       -0.01066        2.51941
O         -0.00022        1.96165        0.00807
H          0.00064        2.53308       -0.78036
O         -2.14351        0.00005       -0.00035
H         -2.73007       -0.77367       -0.00377
H         -2.72985        0.77394        0.00274
H          0.00092       -2.52672       -0.80106
H          0.79570        0.01017       -2.51926
H         -0.00127        2.52661        0.80115
H          2.73016       -0.77329       -0.00264
H          0.79504       -0.01034        2.51940
