19
Ti_2_HSE06.log	Energy: -820338.6729982
Ti        -0.00022        0.00010        0.00002
O          1.71482       -0.61212        1.23353
H          2.17019       -0.08457        1.89985
O          0.32386       -1.80576       -1.21298
H         -0.24224       -2.58612       -1.23673
O         -1.40121       -1.16525        1.23134
H         -2.35997       -1.06397        1.25429
O         -1.71206        0.61156       -1.23806
H         -2.10542        1.49134       -1.27350
O         -0.32532        1.80387        1.21555
H          0.23916        2.58539        1.23964
O          1.40040        1.16778       -1.22942
H          2.35938        1.06833       -1.25076
H          1.17872        1.82105       -1.90301
H          1.00869       -1.94526       -1.87721
H          2.10784       -1.49213        1.26683
H         -1.00932        1.94075        1.88118
H         -1.17987       -1.82023        1.90340
H         -2.16617        0.08267       -1.90418
