19
Ti_3_PBE0.log	Energy: -820201.3299882
Ti         0.00000       -0.00001       -0.00000
O         -1.34111       -1.07186        1.16634
H         -2.24649       -1.32671        0.91655
O         -0.25913        1.69941        1.16308
H         -0.02645        2.61049        0.91238
O          1.60024       -0.62313        1.16579
H          2.27326       -1.28061        0.91712
O          1.34111        1.07188       -1.16632
H          1.18842        1.44789       -2.05055
O          0.25910       -1.69943       -1.16308
H          0.66249       -1.75657       -2.04658
O         -1.60022        0.62315       -1.16581
H         -2.27320        1.28067       -0.91715
H         -1.85019        0.30092       -2.04913
H         -0.66266        1.75655        2.04652
H         -1.18843       -1.44783        2.05059
H          0.02658       -2.61053       -0.91229
H          1.85017       -0.30093        2.04913
H          2.24651        1.32669       -0.91654
