19
V_3_PBE0.log	Energy: -879491.3180905
V         -0.00007       -0.00010        0.00009
O          1.39331       -0.92057       -1.15667
H          1.61833       -1.86706       -1.15205
O          1.48900        0.74480        1.16377
H          1.39788        1.42165        1.85671
O          0.10477        1.66321       -1.16122
H         -0.52420        1.92396       -1.85617
O         -1.39365        0.92083        1.15618
H         -1.93802        0.50544        1.84730
O         -1.48905       -0.74496       -1.16371
H         -1.39729       -1.42178       -1.85728
O         -0.10431       -1.66318        1.16152
H          0.52602       -1.92460        1.85502
H         -0.81229       -2.33040        1.15770
H          2.42121        0.46653        1.16196
H          1.93629       -0.50475       -1.84870
H         -2.42149       -0.46666       -1.16186
H          0.81189        2.33130       -1.15552
H         -1.61738        1.86760        1.15188
