19
V_3_HSE06.log	Energy: -879521.6621894
V         -0.00009       -0.00012        0.00000
O         -1.54868        0.61164       -1.16488
H         -1.96134        1.49258       -1.16564
O         -1.30939       -1.03478        1.15955
H         -1.08349       -1.67968        1.85206
O          0.24703       -1.65122       -1.15827
H          0.92217       -1.77762       -1.84726
O          1.54850       -0.61167        1.16505
H          1.99217       -0.09062        1.85654
O          1.30963        1.03470       -1.15917
H          1.08397        1.67805       -1.85325
O         -0.24690        1.65153        1.15771
H         -0.92118        1.77824        1.84745
H          0.30868        2.45004        1.15532
H         -2.27865       -0.95194        1.15562
H         -1.99320        0.09051       -1.85573
H          2.27903        0.95316       -1.15342
H         -0.30911       -2.44937       -1.15752
H          1.96153       -1.49243        1.16585
