19
V_3_B3LYP.log	Energy: -879944.6205017
V          0.00000       -0.00001        0.00000
O          1.22569        1.14548       -1.17084
H          2.20204        1.14810       -1.16420
O         -0.38181        1.63775        1.16517
H         -1.06308        1.70851        1.86110
O         -1.60678        0.48472       -1.16995
H         -2.00690       -0.07177       -1.86544
O         -1.22577       -1.14559        1.17066
H         -0.94553       -1.76892        1.86807
O          0.38187       -1.63781       -1.16505
H          1.06320       -1.70862       -1.86093
O          1.60681       -0.48453        1.17001
H          2.00673        0.07204        1.86554
H          2.09773       -1.32850        1.16532
H          0.10398        2.48465        1.15708
H          0.94537        1.76855       -1.86845
H         -0.10395       -2.48470       -1.15696
H         -2.09754        1.32879       -1.16519
H         -2.20213       -1.14808        1.16404
