%chk=kojate_ox_low_spin.chk
#p B3LYP empiricaldispersion=gd3 scrf=(cpcm,solvent=water) scf=(maxcycles=500,xqc,maxconventional=50) 6-31+G(2df,p)  

kojate ox low_spin spin

0 2
C         -1.38377        3.56891        1.03846
C         -1.14660        4.80980        0.48222
O         -0.36569        5.03377       -0.67411
C          0.24381        3.87997       -1.28189
C          0.05062        2.59425       -0.79349
C         -0.79522        2.41225        0.42325
O         -0.91385        1.12742        0.77577
O          0.53095        1.43447       -1.28289
C         -1.66969        6.18585        0.96892
O         -0.82524        7.27462        0.45021
H         -2.00744        3.48958        1.93673
H          0.81523        4.15842       -2.17426
H         -2.73344        6.31923        0.63877
H         -1.67809        6.21315        2.08255
H         -0.36084        6.75450       -0.31379
Fe         0.00102       -0.00219       -0.15749
C         -2.40539       -2.98142        1.03957
C         -3.59911       -3.39465        0.48300
O         -4.18119       -2.83107       -0.67487
C         -3.48369       -1.72891       -1.28388
C         -2.27312       -1.25512       -0.79503
C         -1.69501       -1.89595        0.42321
O         -0.52206       -1.35822        0.77586
O         -1.50636       -0.26160       -1.28527
C         -4.53246       -4.53250        0.97103
O         -5.89622       -4.34375        0.45022
H         -2.02686       -3.48117        1.93906
H         -4.00894       -1.37354       -2.17730
H         -4.11802       -5.52191        0.64374
H         -4.55352       -4.55100        2.08453
H         -5.67583       -3.68323       -0.31462
C          3.78534       -0.58845        1.04108
C          4.74232       -1.41297        0.48445
O          4.54708       -2.19991       -0.67295
C          3.24355       -2.15087       -1.28170
C          2.22582       -1.34198       -0.79294
C          2.48974       -0.51990        0.42506
O          1.43564        0.22425        0.77762
O          0.98155       -1.17807       -1.28307
C          6.19564       -1.64699        0.97157
O          6.71996       -2.91858        0.44744
H          4.02754       -0.00954        1.94015
H          3.20008       -2.78380       -2.17495
H          6.84117       -0.78949        0.64636
H          6.22247       -1.65860        2.08507
H          6.03702       -3.06037       -0.31633
O 2.43520725574266 0.0005367391304350068 8.844220665529587
H 3.33520725574266 0.0005367391304350068 8.844220665529587
H 2.142195916731219 0.8515034571698202 8.844220665529587
O -3.0519371594057927 -2.794867497057976 8.175091768181156
H -2.1519371594057928 -2.794867497057976 8.175091768181156
H -3.3449484984172337 -1.943900779018591 8.175091768181156
O 0.4573690130520373 5.217247342252825 7.505962870832728
H 1.3573690130520373 5.217247342252825 7.505962870832728
H 0.1643576740405963 6.06821406029221 7.505962870832728
O 3.691821780976818 -4.815389310560586 6.836833973484297
H 4.591821780976818 -4.815389310560586 6.836833973484297
H 3.398810441965377 -3.964422592521201 6.836833973484297
O -6.630514554161657 1.1733002665732069 6.16770507613587
H -5.7305145541616564 1.1733002665732069 6.16770507613587
H -6.923525893173098 2.0242669846125922 6.16770507613587
O 6.138954620406435 3.905928946629257 5.498576178787438
H 7.038954620406435 3.905928946629257 5.498576178787438
H 5.845943281394994 4.756895664668642 5.498576178787438
O -2.0056475626334542 -7.458665898318523 4.82944728143901
H -1.1056475626334543 -7.458665898318523 4.82944728143901
H -2.2986589016448953 -6.607699180279138 4.82944728143901
O -3.730134220592985 7.181800006405635 4.160318384090579
H -2.830134220592985 7.181800006405635 4.160318384090579
H -4.023145559604425 8.03276672444502 4.160318384090579
O 7.88123007857435 -2.877843360061497 3.4911894867421482
H 8.78123007857435 -2.877843360061497 3.4911894867421482
H 7.588218739562909 -2.0268766420221116 3.4911894867421482
O -7.975353638537325 -3.2913839632161332 2.822060589393719
H -7.075353638537325 -3.2913839632161332 2.822060589393719
H -8.268364977548766 -2.4404172451767483 2.822060589393719
O 3.7325112329319974 7.977676649007062 2.15293169204529
H 4.632511232931997 7.977676649007062 2.15293169204529
H 3.4394998939205563 8.828643367046448 2.15293169204529
O 2.6732116436639086 -8.523545613384421 1.4838027946968595
H 3.5732116436639085 -8.523545613384421 1.4838027946968595
H 2.3802003046524676 -7.672578895345036 1.4838027946968595
O -7.794647667209547 4.517428563742512 0.8146738973484294
H -6.894647667209546 4.517428563742512 0.8146738973484294
H -8.087659006220987 5.368395281781897 0.8146738973484294
O 8.822088081256936 1.9401488988446804 0.1455450000000006
H 9.722088081256937 1.9401488988446804 0.1455450000000006
H 8.529076742245495 2.7911156168840656 0.1455450000000006
O -5.181468145469197 -7.368916060128184 -0.5235838973484304
H -4.281468145469197 -7.368916060128184 -0.5235838973484304
H -5.474479484480638 -6.517949342088799 -0.5235838973484304
O -1.1485166447095942 8.860020695964485 -1.1927127946968583
H -0.24851664470959423 8.860020695964485 -1.1927127946968583
H -1.4415279837210353 9.71098741400387 -1.1927127946968583
O 6.7340905021920525 -5.675348454500236 -1.861841692045289
H 7.634090502192053 -5.675348454500236 -1.861841692045289
H 6.4410791631806115 -4.824381736460851 -1.861841692045289
O -8.620703322130787 -0.35593743982188 -2.5309705893937178
H -7.720703322130786 -0.35593743982188 -2.5309705893937178
H -8.913714661142228 0.4950292782175052 -2.5309705893937178
O 5.947211030798044 5.91926251029606 -3.2000994867421495
H 6.847211030798045 5.91926251029606 -3.2000994867421495
H 5.654199691786603 6.770229228335445 -3.2000994867421495
O -0.3742414677689 -8.082860323647525 -3.8692283840905777
H 0.5257585322311 -8.082860323647525 -3.8692283840905777
H -0.6672528067803409 -7.23189360560814 -3.8692283840905777
O -4.949309004362424 5.930913371416924 -4.538357281439008
H -4.049309004362423 5.930913371416924 -4.538357281439008
H -5.242320343373865 6.781880089456309 -4.538357281439008
O 7.210855754262102 -0.9697354207545331 -5.207486178787438
H 8.110855754262102 -0.9697354207545331 -5.207486178787438
H 6.917844415250661 -0.11876870271514794 -5.207486178787438
O -5.5272811746434405 -3.844882388087399 -5.8766150761358675
H -4.62728117464344 -3.844882388087399 -5.8766150761358675
H -5.8202925136548815 -2.993915670048014 -5.8766150761358675
O 1.3314529007710456 5.921017322115359 -6.545743973484297
H 2.2314529007710457 5.921017322115359 -6.545743973484297
H 1.0384415617596046 6.771984040154744 -6.545743973484297
O 2.6031591929479494 -4.543123637454543 -7.214872870832727
H 3.5031591929479493 -4.543123637454543 -7.214872870832727
H 2.3101478539365083 -3.692156919415158 -7.214872870832727
O -3.943019303533593 1.258321105241719 -7.884001768181156
H -3.043019303533593 1.258321105241719 -7.884001768181156
H -4.236030642545034 2.109287823281104 -7.884001768181156
O 2.2106172593974933 1.0221099121265298 -8.553130665529586
H 3.1106172593974932 1.0221099121265298 -8.553130665529586
H 1.9176059203860523 1.873076630165915 -8.553130665529586


