%chk=Fe_6H2O_CAM-B3LYP_0_5.chk
#p CAM-B3LYP 6-31+G(2df,p) scf=(maxcycles=500,xqc,maxconventional=50) scrf=(cpcm,solvent=water)

Fe_6H2O_0_5

0 5
Fe          -1.00455687346518        0.90035985316378        0.27766237435240
O           -0.91416093948770        3.37532984462405        0.41212057634463
H           -1.20461577479399        3.91690555174604       -0.32483742086377
O            1.45294333677687        1.29686790106959        0.09860981291789
H            1.80929185426311        1.34571893785476       -0.79059826579671
O           -1.81918752947854        1.21198554833928        2.62012792902780
H           -2.71547913060336        0.86695917784785        2.65581975338222
O           -0.11489746630716       -1.10668712628741        1.44959653846858
H           -0.49406398440684       -1.96470099221588        1.24625285905094
O           -3.51414218454578        0.42982350161851        0.11953075912566
H           -3.12029622286248        0.11708108211240       -0.72193902937824
O           -1.65327723268214        0.17981404159261       -1.72688209854236
H           -1.19969207871746       -0.39713055946150       -2.33172578391801
H            3.67104701512715       -3.09720010642359       -8.67461779860060
H            1.77524664457190        2.06407244303000        0.57901826198446
H           -1.27355343948767        3.75308373903482        1.21930376338392
H           -4.13682799387009        1.11886122399359       -0.12017474433285
H           -1.29438896390574        0.71664120237962        3.25432557552508
H            0.83909339359043       -1.18170549500480        1.36245234774089



