19
 energy: -32.805896828829 gnorm: 0.000013842303 xtb: 6.6.0 (conda-forge)
Fe          -0.78470759391671        0.71315002553465        0.03233885071876
O           -1.41013087164852        2.96839284152789       -0.18536937958691
H           -1.83598772827136        3.39413978155533       -0.93703563741773
O            1.46671908441476        1.38847662729989        0.06325730984920
H            2.24540865988786        0.86026831031794       -0.14229580130544
O           -0.83689717724617        0.97844323524304        2.36726993469509
H           -1.44237868706776        0.57187122467716        2.99631706373762
O           -0.30901178685927       -1.56253867901585        0.37847466789418
H           -0.94608012800625       -2.27963354722174        0.29118065706888
O           -3.05928725619079        0.14945324366361       -0.15304034199253
H           -3.48188287401806       -0.18879222022881       -0.94972009472041
O           -0.56018692401755        0.35567642071222       -2.28004902760192
H           -0.36831975612964        1.00688877561677       -2.96322540075403
H           -0.44258977223607       -0.50412836829530       -2.69790459464890
H            1.77005510565956        2.30225864921621        0.08954109140258
H           -1.47086677809560        3.59820616158690        0.54081776439270
H           -3.77724307099089        0.38053430013557        0.44591962680308
H           -0.12843043742207        1.36088244356432        2.89596421994855
H            0.46030042213982       -1.94746945589283        0.81160450151494
