313
 energy: -544.365029361396 gnorm: 0.000972659282 xtb: 6.6.0 (conda-forge)
C            2.14903145174000       -1.64074599525156       -0.86909528962609
C            0.78022397834776       -1.75203596528989       -0.27130368105692
C            0.01494137563525       -0.65014968329909        0.08792848189796
C           -1.31915933827122       -0.91052952640754        0.67872931739534
O           -2.05785800871272        0.04814445329101        1.01019340435643
C           -1.68964380161545       -2.28485038050443        0.82443701144512
C           -0.85232750995783       -3.27499369579383        0.42482895081872
O            0.34935064110204       -3.04871704683111       -0.10299530720050
O            0.40133229761797        0.55644402246381       -0.07103239749744
H            2.90841380032243       -2.04351898018490       -0.19919268544882
H            2.21926060858211       -2.18274006697557       -1.81229263058947
H            2.34378133791437       -0.58561174483668       -1.03397892309694
H           -2.64564486832191       -2.53719999623090        1.25449241827184
H           -1.08900029091243       -4.32757991813849        0.48164569834066
Fe          -1.19329490165824        1.91510673013968        0.63441386182611
C            1.02678190059913        6.04706768475551       -1.36064374071805
C            0.10212269185289        5.03076219630363       -1.95876794480670
C           -0.43792158438158        3.97250218334970       -1.23801031517582
C           -1.32711851488421        3.03852856041453       -1.96908085789970
O           -1.84145111370287        2.06060966624167       -1.37463650283084
C           -1.54220407417556        3.32485439984742       -3.35374833171280
C           -0.94471196009126        4.39352430727372       -3.94164803363093
O           -0.14514648126240        5.23154175949740       -3.29206408289481
O           -0.20856488443383        3.77809477450204        0.00228314387866
H            2.03412670414493        5.94817418907248       -1.76586430036455
H            0.67765539747345        7.05863491623821       -1.56511423329083
H            1.05499782102695        5.87313957574636       -0.28940151426779
H           -2.18019871944088        2.68133748670360       -3.93745561822075
H           -1.06144296328929        4.66082794929715       -4.98240197567535
C           -0.11100423339795        2.66723311962920        5.58021468031030
C           -1.27500115827408        3.08268436301928        4.73327392362014
C           -1.40137028420760        2.75523185711922        3.38860671268921
C           -2.59180439212574        3.27468381133578        2.67360368672903
O           -2.74595101778731        3.03976278429431        1.45090303277669
C           -3.51793153205199        4.03582456582029        3.45337170589089
C           -3.28325437624929        4.26688117740638        4.76998773631118
O           -2.20643454322133        3.82736530575763        5.41288041984313
O           -0.55222511196252        2.04597892185398        2.75292129768340
H            0.26741238659385        3.51139858226436        6.15479958577144
H           -0.39014947015000        1.87806273550525        6.27986653055459
H            0.66226276620965        2.29656349680366        4.91504773683515
H           -4.40792805732142        4.42819094152981        2.98858526546845
H           -3.94483078052733        4.82510297214286        5.41536687813840
O            3.43082912797684        3.40118882872576        9.92307725129801
H            3.17487100904347        2.54962834665397        9.55528540015334
H            2.87998136710807        3.51843135338057       10.71628540200784
O           -3.32083610739389       -0.43566405521029        7.34459956861854
H           -2.88395650104478       -1.29140260113615        7.39972360333191
H           -3.95892770025031       -0.49119682618772        6.62629705095698
O           -0.24654244564331        8.85019558062477        5.85209584485196
H           -0.12243144433094        8.03185782058337        5.36276482881375
H            0.06107031135157        8.66977175885577        6.75820380630602
O            2.12054962567165       -2.65812342077780        5.01967553416970
H            2.47069065912059       -3.09126942621906        4.23571303673479
H            1.42118618509091       -2.06641592200385        4.72671509667527
O           -7.51799040348799        3.67878624780285        6.40252894078695
H           -7.37415042234669        2.74449164534195        6.58098463943557
H           -8.03678601044311        3.73417585908101        5.59315901270905
O            4.49715903830394        5.45782662364619        4.07988171848475
H            4.73884243870504        6.34126059036530        4.41070068208453
H            3.68661849695319        5.56491893462847        3.57430245188028
O           -4.17836473273310       -4.95260165287214        3.89964105778019
H           -4.91820368073583       -4.46804706173471        4.27886185929730
H           -4.54993371421896       -5.67916611109242        3.38955932465308
O           -3.81921733038726        9.93731543358658        3.00022596960867
H           -3.61519447152910        9.00151827262739        2.91523795757902
H           -3.31199644779919       10.24978497498554        3.77511853944171
O            7.03890496752556        0.04836710834260        0.69352683117309
H            6.48087137290016        0.11826732802273        1.48844076533931
H            6.63398497128177        0.62708641880295        0.04050834214284
O           -7.20131970608475        0.15420460175575        0.94162318204681
H           -6.65897468685854       -0.53225551966166        0.54119948089049
H           -6.64247232197258        0.93453987186214        1.01422422525242
O            1.05863533305991       10.72166739075796        0.63754365219749
H            0.60511988131475       10.21703057077368        1.31928803475748
H            1.80726881269057       11.15333480395926        1.08610638478623
O            2.75637540213151       -4.92621035530637       -0.14174408788445
H            3.22478207276902       -4.68879341680949       -0.96594260845322
H            1.95454011724402       -4.39018664486365       -0.14198617308466
O           -6.96072016027683        6.14444951692035       -0.04014965047029
H           -6.77849021920201        5.34186848918909       -0.53815628833971
H           -6.24844329771991        6.76229580241513       -0.22912584482837
O            7.07675583728495        5.33722740746058       -0.84543214583657
H            7.71515661674983        5.74137900340642       -0.23214265145417
H            6.26998429385852        5.20754074747571       -0.33797187281337
O           -6.52003129249844       -5.02483543799871       -1.93455813410366
H           -5.75000796581777       -4.55185485143496       -1.60409997483243
H           -7.03474939436968       -4.37897636727025       -2.44526713384188
O           -2.65537065893635       10.55331157141731       -2.35154726870951
H           -2.88225770338234       10.00640384693159       -1.59377985272339
H           -1.88246261929426       11.08078210461328       -2.07419115587929
O            6.58422020560261       -3.23667324816961       -2.48932950052315
H            7.01863834350089       -3.02959738336417       -1.63656509305991
H            6.81082554796454       -2.51341959945428       -3.08159681242832
O           -7.51743357832784        2.08608444389259       -3.90715625460290
H           -6.62970592773743        1.86357758442570       -3.60975159965958
H           -7.42360367136635        2.88996713152788       -4.44248439703990
O            4.47779140155830        5.71710637029477       -6.13105023800384
H            4.75246717372838        6.43689683060557       -5.55429140016629
H            3.51692853167685        5.68533972529197       -6.10447032310801
O           -2.48582487351572       -2.08122599797641       -4.65497402342639
H           -1.55958909886804       -1.83494662758778       -4.57187282720905
H           -2.93323027609128       -1.73447098943414       -3.87699851857378
O           -5.92044348980707        6.96605563106654       -4.97609107213628
H           -4.98701613317514        7.11201417615344       -4.79538759007401
H           -6.28312868661069        7.80331296229496       -5.28226420279343
O            2.84179365006979        0.66902660854226       -6.10750992546376
H            3.70107414995226        0.99732849083244       -5.82457389102428
H            2.22661200391100        0.82553883090009       -5.38481619682837
O           -3.14272775790519        1.08420879418680       -7.40948827006592
H           -2.28113678405415        1.19042698998954       -7.82418525899749
H           -3.69015404969282        1.81905150778645       -7.70309320257391
O            1.67832932265306        3.37405326229503       12.13525016354283
H            1.87269639303437        2.68985015906555       12.80003523519493
H            0.72208783906613        3.37620891825030       12.02605989805758
O           -3.77913811750089        1.05911790277674        9.67828660596043
H           -3.62455315846349        0.52733712809214        8.87776570090463
H           -3.72594822001977        1.97853024126971        9.40090433045729
O            0.67730598905413        8.06972153926100        8.36788025985882
H            1.31251126155066        7.36075791307987        8.50730229593078
H            0.07837403537710        8.04718505371781        9.13375774138577
O            2.81908564960943       -3.53041424745705        7.60758452272228
H            2.96918620875473       -4.47037463998708        7.47124625482848
H            2.55046660461267       -3.17246682195663        6.74487489541399
O           -7.82937585470221        5.44152553194542        8.57461694519741
H           -7.64203126500498        4.83524333426605        7.83743324109688
H           -8.57165729113763        5.98448456760688        8.29354033961013
O            5.14354505374061        7.97656074302638        5.16092781580748
H            5.57518706463000        7.87887680396698        6.02721767343763
H            4.47439547146037        8.65917534108801        5.26997925184707
O           -1.85532599522405       -5.43134549101151        5.41085545411546
H           -1.24574249422804       -5.88350968185516        4.81952259154566
H           -2.63408536562787       -5.20248500337515        4.87476902416485
O           -2.40951906358219       10.56441157820734        5.30108441411500
H           -1.61812984054953       10.02686099406219        5.48339779480439
H           -3.01153786223242       10.40261203447237        6.04653847820477
O            5.36400111884235        0.43594082729262        2.88541352504275
H            5.66864295802631        0.52018268369666        3.80411604242510
H            4.51335734906029        0.88318678701702        2.83322833146082
O           -8.86584645161874       -0.46133717105877        3.10216635470018
H           -8.26472415075134       -0.26848785927721        2.36000674300642
H           -9.72424566545921       -0.10920952097210        2.84987258283573
O            3.09349236496122       11.88439206121042        2.15336096063932
H            3.95920056216637       12.22095798747292        1.90658906735910
H            2.80431405415935       12.39828718426992        2.92903469237250
O            3.14113058233039       -7.33523978272315        1.19558905161828
H            3.79818406600757       -7.75799161150715        0.63385952937183
H            2.95496441182332       -6.47258188862844        0.78127938104842
O           -9.10073774225224        6.54607064493492        1.76960221640429
H           -8.32204890969327        6.37881265246123        1.21261706974258
H           -9.83825585587790        6.66346749771532        1.16342462474657
O            8.68730113598034        6.43135007322958        1.19531723159154
H            8.97698779674943        5.78490296906241        1.86254841217232
H            8.35091852547522        7.18946879242711        1.68353737983283
O           -7.56177149932131       -6.94634216872761       -0.23692590336357
H           -6.86176203390870       -7.60219047992241       -0.17227155638225
H           -7.24616117241097       -6.28101920992114       -0.87805855288778
O           -0.53134733180111       12.01152874645279       -1.28073656678763
H            0.07874996958974       11.53639263193142       -0.68810327727200
H           -0.83599996962343       12.78200536872339       -0.77119124279160
O            7.82265858704193       -2.49539669268500       -0.15214731081175
H            7.78251326890171       -3.06173859210851        0.63546158544645
H            7.57953609909494       -1.60259512449550        0.15858741375617
O          -11.84863648145557        2.77506233695802       -0.68335938918977
H          -10.91991393826881        2.54383425048836       -0.78747115322749
H          -12.15823529280285        3.09478184400527       -1.53605153563228
O            5.52177797603234        9.87368460459635       -2.46234120370137
H            6.22801267859576       10.34361558211003       -1.98799968395097
H            4.96809535880799        9.47429909997259       -1.78478001388375
O           -1.42397571362459       -6.86711832399393       -3.01174409072052
H           -0.68889842766127       -6.40027100015194       -3.42218757305802
H           -2.17926050835876       -6.78012164641917       -3.60199342297981
O           -7.91938619550221       11.54684316713525       -2.87947006283318
H           -7.01557766891342       11.86128605309985       -2.97718077284393
H           -8.09206878715688       11.52557812067673       -1.92398711122292
O            8.47523666495718        1.67697203887010       -4.60385605385203
H            9.24154645092603        1.66029745795871       -4.00756752430898
H            7.81637831364024        2.22839482035714       -4.17088592100502
O           -7.79702884011924       -2.96772455088333       -3.38499562199989
H           -7.50263669698284       -2.68036920955013       -4.25457636624631
H           -8.61671561724871       -2.50264614032578       -3.19218512140816
O            1.83820740859709       10.20717423288262       -5.93447008635251
H            1.52189275102980       10.02366842430453       -5.04413040867926
H            2.53909240256900       10.86103780777445       -5.85375538837143
O            4.00309840955116       -4.21791740216133       -2.51208265035668
H            4.01131910556240       -4.85325184890590       -3.23419921932379
H            4.91476213066899       -3.87202294885635       -2.44814135693654
O           -7.06360748386409        4.41381307730142       -5.49309485481879
H           -6.65026182400734        5.24999705307457       -5.22368376440899
H           -7.28196192812316        4.51209498529008       -6.42438153832581
O            6.07136876500849        4.62512908547634       -8.20610296679951
H            6.97093572536805        4.79437265426123       -7.90941282595078
H            5.48668581172483        4.96877387740381       -7.51069296689669
O           -3.91057281923803       -1.65144099787184       -7.09807538583266
H           -3.43144444271512       -1.92316164898356       -6.29852331853874
H           -3.71096022874915       -0.70657063292807       -7.19936518824152
O           -1.06028126000983        5.77865789944058       -7.17721834427271
H           -0.72147627978976        5.49591546342385       -8.04183002857289
H           -0.99529681133813        6.73830418188982       -7.17595354799602
O            2.11817338528002        0.21612828902884       -8.84214465852320
H            2.32677790608852        0.28732299050802       -7.89708708763137
H            2.51879025357305        0.98489640378218       -9.25918964374669
O            2.14030094043735        1.20766232062120       13.86890910579012
H            2.96323759371830        0.72782761875169       13.73145025745282
H            1.43801520441092        0.55094731429301       13.92186330174493
O           -2.73931920308174        0.00905442727617       12.07693873961471
H           -3.07370716159456        0.43423513400573       11.26750984773508
H           -3.23163607394736       -0.81298783057822       12.15967584392165
O           -1.05829735471048        7.84337211518607       10.56003302274804
H           -1.67111854473036        7.10117615665135       10.56475650849988
H           -1.52265462247116        8.59597775303825       10.93866681033607
O            2.48704160912207       -2.08193214542874       10.02277535301320
H            1.55588039755091       -1.84908455971669        9.95083655244723
H            2.69635750373027       -2.57930582144284        9.21590905900578
O           -6.11454986916607        5.96764414887609       10.76407244456663
H           -6.67254176750180        5.82117935159874        9.98189693795622
H           -6.33501966412438        5.25991479627905       11.37671214705441
O            6.29769665066515        7.59376412694591        7.69853937709931
H            7.24450007829723        7.55556598543751        7.86222971537041
H            5.88966506918604        6.89719278534562        8.22227736291428
O           -2.17896404135937       -6.02032517082509        8.15442982811667
H           -1.35854465254456       -5.67706343389271        8.52154053180993
H           -2.13326220937462       -5.84251453151474        7.19868389719900
O           -4.33490514381315        9.90122099526782        7.28361217832093
H           -4.52463054394323        8.96582937893210        7.41001575651710
H           -5.17720400485729       10.36514716121904        7.30469587190590
O            6.08855866727599        0.72618907759996        5.61147418349150
H            5.78051621247457        0.05308070981043        6.22644781335497
H            5.96003945806856        1.57941833495744        6.03814551237843
O           -8.37627714036676       -1.75516191691193        5.57472346889195
H           -8.47204309128629       -1.28412236894439        4.72995322539535
H           -9.03371251276831       -2.45675649939553        5.56085184164962
O            2.13691348278533       13.23786455893977        4.40837816366114
H            2.17966860892850       12.74957819893453        5.23686632057293
H            1.22989390824196       13.54591934114990        4.31227579885432
O            3.47264621709855       -7.63844135330572        3.96000336882288
H            3.14327855266807       -8.52986744181188        4.10541675060898
H            3.33557596374757       -7.45888637960929        3.01149429407946
O           -8.89553949111264        8.20907673840203        4.03956261046807
H           -9.01559515270550        7.61030641641776        3.28132058360942
H           -7.95519832346945        8.18697105293881        4.24172889281395
O            9.30137829545735        4.55601109320222        3.21812731373420
H            8.98202597311669        3.66958358726400        3.02137492326297
H            9.08668831789000        4.73076327043452        4.14015343379798
O           -9.03991561209267       -5.91477656021107        1.92995316866490
H           -8.56600898553997       -6.34186504506375        1.19440484864703
H           -9.10493260016460       -4.98379890899789        1.69482740609582
O           -1.65324829328211       14.11756542557320        0.25909614505265
H           -2.10622477884051       13.77853873403964        1.03825059095661
H           -2.27867382762771       14.67929372672984       -0.20882492402123
O            7.53401598680762       -3.96343802996118        2.26601283341810
H            7.87392081079694       -3.64306932995855        3.10699884797437
H            6.64025159451043       -4.28318738408700        2.42560204814206
O          -13.35796262693883        2.68093179057429        1.76379645930384
H          -12.89994371989301        2.62632789321665        0.91052333808947
H          -13.06069156963599        3.50174595559171        2.16908972816637
O            7.61094360129690       11.25017156276003       -1.11684676262773
H            8.48547713502061       10.85114360080846       -1.16812965052694
H            7.70971807800496       12.18545358675316       -1.32112866107638
O           -1.76205109390565       -6.57613273540979       -0.21377849970715
H           -1.46223024359057       -7.40040700135276        0.18037767746058
H           -1.66368629022044       -6.69069714289595       -1.17431125520566
O           -8.27032249503576       11.44642103520530       -0.04393279681054
H           -7.57132791691616       11.13440315548771        0.54030279083553
H           -9.10674430640228       11.22431943892918        0.37626480480982
O           10.51769617472005        1.64985605648381       -2.61764875274147
H           10.71247707269418        0.79694756705883       -2.21686795167313
H           10.51633706173661        2.30178985478275       -1.90884996251137
O          -11.99525540067896       -5.91188705911522       -2.93309969095807
H          -11.20429951066089       -6.35492691228359       -3.25676887484859
H          -11.92059751887133       -5.87570465676050       -1.97438782000258
O            3.73023411746123       15.07082275284249       -1.95634538589671
H            3.59049413344289       14.17927459691222       -2.29165208142944
H            2.95724656911002       15.29173136926747       -1.42737929720592
O            8.02638354820384       -8.16634076633642       -1.48784024364722
H            8.22139800785834       -7.45676201101866       -0.86718339824742
H            7.58528668592568       -7.76155198641328       -2.24140230989212
O          -11.36912163036884        7.41379256989107       -3.23831035715493
H          -10.49619804585547        7.04368129247875       -3.40570604942519
H          -11.28426199353650        8.36984681919884       -3.30316940289024
O            9.96220983391656        7.19827931792476       -4.77675310579422
H           10.04292429018529        6.30252830494413       -4.43398240932374
H            9.13409383590805        7.55271423220345       -4.43744008909610
O           -4.20969211787471       -6.78259329885737       -7.84927437216545
H           -3.44859181208725       -6.23395559721367       -8.06407434107402
H           -4.89712502822051       -6.19117816430338       -7.52662810235765
O           -3.59372650730105       11.19495569230442       -7.33173530253974
H           -2.68862479568335       11.06817908637206       -7.03019203284505
H           -4.04907614770289       11.69163399825433       -6.64484050766840
O            7.79625363528790       -0.54725240648168       -9.33863758273955
H            8.53162796749666       -0.36462933818727       -8.74574996009463
H            7.00103634502564       -0.23313022640549       -8.89628416147211
O           -9.02250573556471        0.20309953244262       -8.55998166617838
H           -8.16842454609004        0.06795306297660       -8.13675701831774
H           -9.56468229167075        0.70302407154347       -7.94179527410416
O            5.43827412973339        9.66926748499581      -10.13478271996848
H            5.84761952205190        9.01262558706890      -10.70685532494528
H            4.92265595559745        9.18635809416130       -9.48070270042024
O            1.46481003671860       -4.78685500497710       -7.39195241054973
H            2.31453045280257       -4.36284194776325       -7.54734094089202
H            0.79045799938258       -4.19165995710989       -7.73430899468671
O           -5.74426709984436        7.07148762527383      -10.04511452377924
H           -4.89866687159060        6.74611584113260       -9.71988970551476
H           -5.69198896077829        8.03222709483775      -10.04608586728686
O            5.36816731893787        4.34169881513060      -10.93141697438924
H            5.91786503210311        3.60162855903865      -11.20616654879131
H            5.55414411751712        4.47235602354631       -9.98531596607253
O           -4.24239276542859       -0.09614581266916      -12.14081850545907
H           -3.65781114409213       -0.78859834695889      -11.81666733611466
H           -5.07180466138875       -0.18257014399235      -11.65993986712098
O            0.00235524753859        5.18634717103422       -9.76598656239965
H            0.93371393640090        5.33249422168060       -9.95997884951901
H           -0.32093681891958        4.53989570883791      -10.40098602736462
