37
catecholate_red_low_spin.log	Energy: -1492735.1268259
C          5.09951       -0.53683       -0.59731
C          5.12390        0.19498        0.59740
C          3.90834        0.62865        1.24110
C          2.63983        0.29339        0.62231
C          2.61440       -0.46930       -0.62240
C          3.85774       -0.88845       -1.24109
O          1.35090       -0.70608       -1.06741
O          1.39492        0.61399        1.06719
H          6.05286       -0.85236       -1.05642
H          6.09615        0.44623        1.05656
H          3.94930        1.20451        2.17420
H          3.86026       -1.46571       -2.17422
Fe         0.03589       -0.00135       -0.00007
C         -2.09382        4.64225       -0.67673
C         -2.69250        4.38168        0.57008
C         -2.43721        3.12905        1.26367
C         -1.56296        2.16339        0.67852
C         -0.93007        2.45357       -0.63088
C         -1.22179        3.70256       -1.29997
O         -0.13092        1.44707       -1.05723
O         -1.23194        0.95261        1.16805
H         -2.30084        5.60031       -1.18574
H         -3.35853        5.13154        1.02621
H         -2.93418        2.92486        2.22194
H         -0.77260        3.93231       -2.27590
C         -2.98103       -4.19123       -0.56958
C         -2.40053       -4.49167        0.67684
C         -1.46694       -3.61286        1.29971
C         -1.09232       -2.38615        0.63063
C         -1.70496       -2.05387       -0.67835
C         -2.64246       -2.95850       -1.26317
O         -1.29353       -0.86799       -1.16787
O         -0.22718       -1.43568        1.05674
H         -3.69624       -4.89452       -1.02543
H         -2.67124       -5.43372        1.18585
H         -1.03373       -3.87242        2.27539
H         -3.12509       -2.72119       -2.22114
