43
salicylate_red_low_spin.log	Energy: -1703336.0624206
C         -1.66463        5.17383       -0.75039
C         -0.67993        4.87518       -1.71752
C         -0.00167        3.64484       -1.70736
C         -0.29197        2.59771       -0.70920
C         -1.32493        2.93487        0.27956
C         -1.96270        4.19392        0.23284
C         -1.69107        1.94804        1.43478
O         -1.09337        0.74682        1.44528
O         -2.52034        2.32436        2.34452
O          0.37860        1.46298       -0.75352
H         -2.18805        6.13958       -0.76416
H         -0.43784        5.62056       -2.49320
H          0.76695        3.43104       -2.46035
H         -2.71887        4.39050        1.00930
Fe         0.10740       -0.14464        0.39395
C          5.46323       -1.18306       -0.89026
C          4.68465       -1.75773       -1.93548
C          3.26075       -1.65390       -1.88900
C          2.56890       -0.99364       -0.82041
C          3.39661       -0.40357        0.27090
C          4.82437       -0.52637        0.17255
C          2.75571        0.32689        1.41085
O          1.36547        0.41442        1.39851
O          3.42851        0.87710        2.36999
O          1.22910       -0.92155       -0.83384
H          6.56215       -1.25306       -0.91959
H          5.17370       -2.27760       -2.77188
H          2.65673       -2.08778       -2.69767
H          5.41995       -0.07163        0.97994
C         -4.13918       -3.61617       -0.88731
C         -4.20713       -2.56013       -1.83330
C         -3.25085       -1.50038       -1.78200
C         -2.21270       -1.44425       -0.78620
C         -2.15575       -2.55995        0.19871
C         -3.13421       -3.60757        0.09630
C         -1.06716       -2.62014        1.22136
O         -0.08656       -1.62708        1.13181
O         -0.94895       -3.56166        2.09917
O         -1.35408       -0.42017       -0.77309
H         -4.87184       -4.43783       -0.92444
H         -4.99546       -2.55326       -2.60052
H         -3.29991       -0.68514       -2.51589
H         -3.06880       -4.42727        0.82837
