43
salicylate_ox_low_spin.log	Energy: -1703675.9651609
C         -0.05215        5.37971       -0.84262
C          0.82049        4.76253       -1.77200
C          1.07603        3.39022       -1.71628
C          0.46537        2.53085       -0.70966
C         -0.43431        3.18975        0.23868
C         -0.65847        4.57224        0.14211
C         -1.16655        2.38741        1.36394
O         -0.97241        1.05521        1.41129
O         -1.92866        3.00927        2.18215
O          0.75154        1.23506       -0.71731
H         -0.24910        6.45744       -0.89116
H          1.30587        5.37171       -2.54928
H          1.75481        2.91929       -2.43845
H         -1.34588        5.00704        0.88556
Fe         0.09091       -0.08829        0.41420
C          4.85898       -2.53669       -0.91648
C          3.90932       -2.96337       -1.87903
C          2.54991       -2.50766       -1.77330
C          2.13387       -1.64360       -0.73174
C          3.12245       -1.20282        0.27532
C          4.48312       -1.68488        0.12834
C          2.74144       -0.31211        1.37514
O          1.36215        0.09266        1.41262
O          3.50430        0.12814        2.31293
O          0.83018       -1.25351       -0.66810
H          5.90236       -2.88019       -0.99160
H          4.20417       -3.63148       -2.69818
H          1.80243       -2.82627       -2.51045
H          5.21984       -1.35706        0.87479
C         -4.83613       -2.56362       -0.93194
C         -4.62575       -1.55029       -1.89681
C         -3.49156       -0.73690       -1.85326
C         -2.46941       -0.88671       -0.81862
C         -2.71175       -1.94238        0.16804
C         -3.86696       -2.73248        0.08113
C         -1.70442       -2.20848        1.33219
O         -0.59135       -1.45593        1.37491
O         -1.96065       -3.11965        2.19301
O         -1.41925       -0.08520       -0.82786
H         -5.72945       -3.19821       -0.97253
H         -5.36813       -1.39933       -2.69543
H         -3.34002        0.04662       -2.60639
H         -3.98857       -3.50674        0.85573
