37
catecholate_ox_lowspin.log	Energy: -1511531.7906848
C          2.35712       -4.45309       -0.54338
C          3.05418       -3.98782        0.57267
C          2.70611       -2.74664        1.15210
C          1.66652       -1.95990        0.62827
C          0.94398       -2.44115       -0.53630
C          1.30737       -3.68125       -1.09038
O         -0.02091       -1.68390       -0.97993
O          1.27665       -0.81714        1.12613
H          2.62100       -5.40948       -0.99846
H          3.87039       -4.57499        0.99751
H          3.24061       -2.36762        2.02255
H          0.75218       -4.03102       -1.96021
Fe        -0.08266        0.00296       -0.00094
C          3.14508        3.92093       -0.57383
C          2.46531        4.39742        0.54807
C          1.39944        3.64922        1.09626
C          1.00184        2.42196        0.53696
C          1.70849        1.92777       -0.63200
C          2.76408        2.69151       -1.15749
O          1.28908        0.79647       -1.13241
O          0.01825        1.68797        0.97929
H          3.97290        4.48997       -0.99999
H          2.75500        5.34422        1.00695
H          0.85725        4.00815        1.97055
H          3.28493        2.30386       -2.03239
C         -5.17097        0.38509       -0.60902
C         -5.17640       -0.28749        0.61223
C         -3.95160       -0.63755        1.22947
C         -2.71633       -0.31999        0.63902
C         -2.71076        0.37557       -0.63693
C         -3.94074        0.71412       -1.22687
O         -1.54118        0.63719       -1.15033
O         -1.55093       -0.60086        1.15206
H         -6.11044        0.66026       -1.09166
H         -6.12025       -0.54658        1.09526
H         -3.93908       -1.16324        2.18403
H         -3.91950        1.23946       -2.18147
