55
deferipronate_ox_lowspin.log	Energy: -1690692.1778510
C          2.41246        2.86833        0.79040
C          1.41773        2.04400        0.27580
C          0.62913        2.48825       -0.85606
O         -0.27408        1.69297       -1.29177
C          0.89938        3.76656       -1.38845
C          1.89651        4.53604       -0.83969
N          2.63489        4.10898        0.21380
C          3.68849        4.97214        0.74541
O          1.12637        0.87310        0.76944
H          0.32650        4.13345       -2.23124
H          2.14221        5.51803       -1.22330
H          4.66298        4.48057        0.67698
H          3.72015        5.89423        0.16507
H          3.49427        5.22234        1.79212
Fe        -0.15551       -0.00386       -0.36137
C         -3.99813        0.30446        0.85634
C         -2.76225        0.08589        0.25933
C         -2.69082       -0.56646       -1.03110
O         -1.52807       -0.73905       -1.53307
C         -3.90030       -0.96263       -1.64051
C         -5.09487       -0.71752       -1.00372
N         -5.15236       -0.10557        0.20237
C         -6.45319        0.12401        0.82776
O         -1.62736        0.43017        0.79914
H         -3.88641       -1.45283       -2.60560
H         -6.04476       -1.00183       -1.43705
H         -6.61616        1.19087        1.00347
H         -7.23676       -0.24524        0.16645
H         -6.52304       -0.40287        1.78364
C          1.71793       -3.40988        0.66351
C          1.18615       -2.25297        0.10266
C          1.84067       -1.63633       -1.03263
O          1.30571       -0.57711       -1.51167
C          3.00355       -2.25264       -1.54092
C          3.48346       -3.39560       -0.94495
N          2.86877       -3.96031        0.12153
C          3.43575       -5.17009        0.71621
O          0.09469       -1.68361        0.52829
H          3.51378       -1.82611       -2.39503
H          4.37518       -3.89663       -1.29879
H          2.71427       -5.99115        0.68626
H          4.32218       -5.46196        0.15259
H          3.72273       -4.99277        1.75662
C         -4.09618        0.97406        2.19388
H         -3.08177        1.18975        2.53270
H         -4.65093        1.92027        2.15124
H         -4.58104        0.34040        2.94728
C          3.24065        2.43042        1.96042
H          3.14410        3.10607        2.81939
H          2.89223        1.44222        2.26362
H          4.30767        2.35800        1.71482
C          1.05608       -4.06657        1.83656
H          1.71814       -4.13315        2.70922
H          0.18907       -3.46332        2.11040
H          0.70826       -5.08223        1.60654
