46
kojate_ox_lowspin.log	Energy: -1795643.5499382
C          0.67443        3.71462        0.68068
C          1.61106        4.53508        0.12455
O          2.37202        4.14919       -0.89966
C          2.23301        2.90748       -1.44757
C          1.32665        1.99640       -0.96900
C          0.50128        2.40449        0.16197
O         -0.33656        1.56125        0.60509
O          1.12725        0.80484       -1.45083
C          1.91262        5.95061        0.55478
O          1.36626        6.27904        1.81519
H          0.06488        4.06819        1.50151
H          2.90532        2.74338       -2.27657
H          3.00108        6.10468        0.51611
H          1.46349        6.64841       -0.16183
H          1.80337        5.75678        2.49760
Fe        -0.13629       -0.12695       -0.35093
C         -3.87255       -1.20438        0.88551
C         -5.04959       -0.97744        0.23510
O         -5.10280       -0.35980       -0.94362
C         -3.96083        0.06759       -1.56318
C         -2.72320       -0.10142       -1.00032
C         -2.65729       -0.76769        0.29303
O         -1.50928       -0.91761        0.80511
O         -1.59165        0.27430       -1.52207
C         -6.41932       -1.38513        0.72298
O         -6.44373       -1.73827        2.09134
H         -3.87063       -1.72293        1.83467
H         -4.15906        0.53940       -2.51364
H         -7.12961       -0.57880        0.48483
H         -6.74736       -2.27645        0.17277
H         -6.25561       -0.95742        2.62435
C          3.13341       -2.22498        0.85427
C          3.65776       -3.33054        0.25222
O          3.07429       -3.91187       -0.79612
C          1.91773       -3.41271       -1.32140
C          1.29961       -2.30843       -0.79661
C          1.93115       -1.66353        0.34765
O          1.35325       -0.64051        0.82208
O          0.17822       -1.79606       -1.21440
C          4.93359       -4.03340        0.65042
O          5.42085       -3.63346        1.91422
H          3.64520       -1.77272        1.69315
H          1.56469       -3.98637       -2.16530
H          4.76852       -5.11888        0.59042
H          5.72012       -3.78800       -0.07208
H          4.80708       -3.92689        2.59703
