43
salicylate_ox_lowspin.log	Energy: -1724990.4103814
C          3.72279        3.78258       -0.86011
C          3.93931        2.67751       -1.70205
C          3.07486        1.59863       -1.67624
C          1.93689        1.54682       -0.80363
C          1.72211        2.68026        0.04995
C          2.61804        3.75359       -0.00847
C          0.53959        2.79852        0.99120
O         -0.28227        1.81936        1.08915
O          0.38840        3.86685        1.61958
O          1.18861        0.50151       -0.86950
H          4.40010        4.63475       -0.86672
H          4.79780        2.66211       -2.37584
H          3.23228        0.72971       -2.30940
H          2.40581        4.58721        0.65462
Fe        -0.22014        0.03677        0.35408
C          2.94858       -4.33272       -0.73360
C          1.82061       -4.44112       -1.56240
C          0.76754       -3.55066       -1.42847
C          0.77971       -2.49022       -0.46711
C          1.92517       -2.40229        0.39034
C          2.96679       -3.32108        0.22819
C          2.03242       -1.39852        1.52514
O          1.14634       -0.47971        1.62632
O          2.96751       -1.53286        2.34095
O         -0.24882       -1.71081       -0.42251
H          3.78628       -5.02179       -0.83377
H          1.76949       -5.22362       -2.32077
H         -0.11139       -3.61268       -2.06507
H          3.80711       -3.21503        0.90844
C         -5.65623        0.22240       -0.99450
C         -4.94618        0.75609       -2.08332
C         -3.56690        0.85709       -2.03649
C         -2.79880        0.43346       -0.89949
C         -3.53613       -0.10596        0.20949
C         -4.92849       -0.19320        0.12240
C         -2.87469       -0.58478        1.49095
O         -1.60522       -0.50575        1.60688
O         -3.61016       -1.03653        2.39573
O         -1.52305        0.56503       -0.96621
H         -6.74227        0.13635       -1.01849
H         -5.48002        1.09369       -2.97359
H         -3.00066        1.26750       -2.86961
H         -5.43325       -0.60906        0.99048
