%chk=salicylate_original_Reduced_Structure.chk
#p B3LYP empiricaldispersion=gd3 scrf=(cpcm,solvent=water) scf=(maxcycles=500,xqc,maxconventional=1000) 6-31+G(2df,p)

Reduced_Structure

-4 1
C          3.61212        4.19700       -0.92139
C          3.81126        3.16908       -1.86416
C          3.08275        1.99525       -1.78379
C          2.08927        1.74328       -0.75649
C          1.90262        2.81188        0.21381
C          2.66145        3.97671        0.08889
C          0.91616        2.72254        1.38254
O          0.19891        1.69063        1.50181
O          0.88028        3.70976        2.17591
O          1.47522        0.63457       -0.78169
H          4.17849        5.12805       -0.96844
H          4.54611        3.29425       -2.66621
H          3.22696        1.19116       -2.50297
H          2.47714        4.73668        0.84501
Fe        -0.01291        0.00672        0.38781
C          1.92154       -5.18412       -0.91306
C          0.92414       -4.86709       -1.85661
C          0.23486       -3.67037       -1.77053
C          0.48217       -2.68124       -0.73815
C          1.50719       -3.03005        0.23471
C          2.17375       -4.24941        0.10437
C          1.88730       -2.12889        1.41366
O          1.33117       -1.00168        1.52812
O          2.75345       -2.58055        2.22084
O         -0.20102       -1.61346       -0.75993
H          2.47517       -6.12265       -0.96583
H          0.68970       -5.56820       -2.66437
H         -0.53880       -3.41155       -2.49135
H          2.92675       -4.45269        0.86288
C         -5.46908        0.94359       -0.93594
C         -4.68945        1.61955       -1.89556
C         -3.30842        1.60537       -1.81082
C         -2.58172        0.91304       -0.76306
C         -3.40287        0.22713        0.22408
C         -4.79196        0.27219        0.09489
C         -2.81975       -0.53948        1.41506
O         -1.56597       -0.63306        1.52914
O         -3.64837       -1.04349        2.23032
O         -1.31499        0.95994       -0.78538
H         -6.55896        0.94601       -0.98579
H         -5.17432        2.16042       -2.71490
H         -2.69263        2.12350       -2.54404
H         -5.34937       -0.25678        0.86516


