%chk=Fe_39H2O_M06_2_5.chk
#p M06 6-31+G(2df,p) empiricaldispersion=gd3 scf=(maxcycles=500,xqc,maxconventional=50) scrf=(cpcm,solvent=water)

Fe_39H2O_2_5

2 5
Fe          -0.00968793927213       -0.41665804273181        0.24318664404696
O           -1.85201332134213       -1.06237927709103        1.70266292646212
O            1.39835525126672        0.99444020272914        1.68960129480582
O            2.05452697876335       -0.07253471049372       -1.02409498046266
O           -0.57844385373967       -0.10515878264846       -2.16897604710465
O           -1.28907057532499        1.71217813927938        0.28162106342083
O            1.09044061004746       -2.20721363233015        1.58879440120655
H           -2.16949299050867        1.56022405038213       -0.09062941215154
H           -0.79614049924065        2.22151504319750       -0.38564026476096
H            1.27252573971420       -1.89793071767346        2.48555198927530
H            1.95830233175263       -2.38913637119247        1.18331687014244
H           -2.30199375615496       -0.28669844098946        2.06943467814814
H           -2.52670906230713       -1.75284115278953        1.63484016607990
H            2.80276833229808        0.47933520750249       -0.76790624128398
H            2.43019461687018       -0.82582190827539       -1.49973366222186
H            1.50601422068927        1.86677755142039        1.28350734317331
H            2.27795890694299        0.57856704951796        1.61879527070707
H           -1.53400159364927       -0.29777445006517       -2.22671342766205
H           -0.12659758256386       -0.80627225682553       -2.65529159670808
O           -2.97434558030500        1.33030523097778        2.45791281413323
O            3.48867153991516       -2.68868820903873        0.39014943347901
O           -3.22571027625668       -0.64434685830117       -2.03537992457350
O           -0.49731933188489       -2.72876834590279       -0.63420543233930
O           -4.00534276436704        1.09138196474066       -0.09930052447381
O           -3.13289719919579       -3.13790085783706       -1.07843906506840
O            1.98408798212057       -0.66048453751799        3.80289238869043
O            3.85233121471760       -0.29760209886343        1.73236524240052
O            2.04598696191800        3.16168339461055        0.08596502082003
O            0.21341293147387        2.50804181814100       -1.81514741251823
O            4.19627571325896        1.57330675063701       -0.21599629416482
O            3.06389179793967       -2.30232756142141       -2.29852216667783
H           -3.21288321595459       -2.23403147528955       -1.46770555238850
H           -3.51563015046213       -3.75522934273843       -1.71347152190131
H           -2.99705017919172        1.58039217867457        3.39158639811091
H           -2.19644116563101        1.74801834098001        2.05218193755450
H           -4.78224235269119        1.65119265324663       -0.22209133642902
H           -3.84812044209537        1.04172593082086        0.85838639648205
H           -0.19740315472701        3.02805552395051       -2.51815005933511
H            0.14383900503428        1.56790889578656       -2.06767785569397
H           -3.76095300932494       -0.41809969323377       -2.80987088575810
H           -3.52970987229627       -0.06971063780795       -1.30606504723743
H           -1.44625181614246       -2.94884701493659       -0.69710403054224
H           -0.13962005274880       -3.19112964764192        0.12829957337641
H            3.70653640739033       -2.34517662569998       -3.01583181858574
H            2.18059838725030       -2.48283381448052       -2.68491793586080
H            4.98035851698042        2.04840451219884       -0.51406623946496
H            3.49181522727673        2.24553441692465       -0.06860729726469
H            2.10467711917118        4.12534934082805        0.06388647980371
H            1.46577799716707        2.89949697769789       -0.65810943844145
H            4.17985736186091        0.35126323852880        1.08380237046295
H            3.80149138160151       -1.14155142634448        1.24995596119660
H            1.45445836474166        0.03617308140106        3.37721851972745
H            2.83667805281224       -0.61080936895105        3.34031583708299
H            3.80349243986928       -3.59064825601983        0.52671927293045
H            3.36377287747789       -2.58113540605015       -0.57206059771118
O            2.11544590674569        2.39602290821136        7.48538012735077
H            1.98243669930484        2.22565223137100        8.42054820710349
H            2.17159697352487        1.51754575332489        7.06072124662645
O           -2.39272363969747       -3.24145944591223        6.54350694586115
H           -1.62732341480357       -2.91271014313544        6.05800002830408
H           -3.08196478941611       -3.40727461039177        5.89247440637268
O            0.16396990613700        6.15260375204269        4.38981180127607
H            0.19323435245877        5.21233903419430        4.17698185808883
H            0.50415673353271        6.24485113293259        5.28303847913529
O            2.26989289056951       -0.18153246924911        6.44609658409137
H            2.93583424519954       -0.80847212296823        6.73674389133835
H            2.12556717142418       -0.36422103589576        5.48576658114601
O           -3.03620692698999        1.75238550695432        5.24231829266673
H           -2.20981447648758        1.64132993218680        5.72290193295791
H           -3.71351183392581        1.27853337458176        5.73135798843276
O            5.63380787384358        4.03961055989377        3.84539348230783
H            5.99738364673859        3.21538520484527        4.18247201379974
H            4.68448321249384        4.00701775470380        4.00699418201611
O           -0.86462220676447       -7.12878929448876        2.62106370254021
H           -0.60530788188982       -6.47928604817719        3.28336226961768
H           -1.73736964046767       -6.87163323748541        2.30668057752405
O           -3.32228377771265        6.92350774133455        0.50030597402909
H           -3.05967884328700        6.11345394139696        0.95296441151578
H           -3.21254578801689        7.64081574843743        1.12931365479591
O            4.16064865525297       -5.43544757231926        0.78088234612465
H            3.43209685229098       -6.04694619360687        0.92657416467306
H            4.95817148436602       -5.84798587133212        1.11945514363623
O           -4.01169874950261       -2.79806348741549        1.43563953470153
H           -3.73593217467321       -3.02372448835159        0.51958320648208
H           -4.84763994946578       -2.33473598365638        1.35535317951672
O            2.22220494447216        6.00252482383850       -0.04881901104778
H            2.81630251809108        6.48469977508134        0.53160002972137
H            1.42245259284461        6.52799645194194       -0.14328267612434
O            0.49626141063283       -2.57991832804239       -3.09326485555384
H            0.11116754588431       -3.26817007105068       -3.63655785086688
H            0.16143805783536       -2.71407190651697       -2.17315570797087
O           -6.23723331464756        2.83724223759287       -0.32906406232058
H           -6.32928366506562        3.50336585334182       -1.01557483669941
H           -6.69696281924639        3.16001188147728        0.45043782294301
O            6.56897021215940        3.05841078535448       -0.82761529478769
H            7.39275964248451        2.70302344116117       -0.48358172155877
H            6.59078680163986        4.01060822835265       -0.69528079028176
O           -4.24253756923200       -4.91684983658658       -3.00332776210621
H           -3.82114026559566       -5.71637845495969       -3.32899670532298
H           -5.02561140389142       -4.76235712609146       -3.53769577001636
O           -1.09567888441115        4.20621057815858       -3.67934984410352
H           -0.62306227734435        4.81238715991253       -4.25407492620483
H           -1.87032714952559        4.66647803188449       -3.34448792984693
O            4.97585020550339       -2.35983844539996       -4.42592785255002
H            5.87327076644239       -2.03965797542703       -4.30225518517363
H            4.81422117184506       -2.41950798937007       -5.37133521096714
O           -4.53151226601430        0.08993665362006       -4.41024547047986
H           -4.39830751002769       -0.47360283534660       -5.17715496279890
H           -4.42217214447004        0.99995385028918       -4.70119198903286
O            3.69296174568485        3.01147873546406       -5.40838358976198
H            3.70587510098571        2.16386813457373       -4.94944878140508
H            3.86125155543600        3.68542547833903       -4.74277664937012
O           -2.46403853958218       -4.17746867758091       -7.51710684470901
H           -1.95936875592928       -3.42222058213396       -7.83625768012766
H           -2.66201178524194       -4.72904998812411       -8.27808100154107
O           -0.63726763246431        1.05480258904971       -7.75883650311340
H           -0.28579689209681        0.84635133943576       -6.88520549208410
H           -0.09711535488439        1.76628823007144       -8.11243244829435



