%chk=Fe_39H2O_MPW1PW91_3_6.chk
#p MPW1PW91 6-31+G(2df,p) scf=(maxcycles=500,xqc,maxconventional=50) scrf=(cpcm,solvent=water)

Fe_39H2O_3_6

3 6
Fe           0.22132881465804        0.21805842993045        0.37975832322636
O           -1.62117612641157       -0.62116683705358        1.20666050610644
O            1.43880810427280        1.56396604405122        1.63891869974376
O            2.08274995255738        0.43143043536787       -0.85784603209375
O           -0.46287878052929        0.47271612606815       -1.83730810276356
O           -1.08163758400821        2.07887255887688        0.46169976611810
O            1.23557446148366       -1.25148529789197        1.78145222906573
H           -2.02378999747944        1.95719588764754        0.23882936075011
H           -0.73645980433363        2.72682539827313       -0.18038393324135
H            1.44452011148616       -0.97742843717830        2.69567527668180
H            2.09003938952048       -1.58019044322010        1.43054841755166
H           -2.10892501735043       -0.05639452737606        1.83004162181697
H           -2.08687524515638       -1.47916401791090        1.20689125967184
H            2.85510176885523        0.99557047851723       -0.66705724734389
H            2.41814820138682       -0.34354735260895       -1.34035409130844
H            1.60171302316774        2.45739778669751        1.28709910472045
H            2.32639130398810        1.20025123395362        1.85877745614700
H           -1.42812858347696        0.30448651350798       -1.94318680117571
H           -0.01430216745613       -0.12019101234536       -2.44295513846347
O           -2.78727273063510        1.31815714790134        2.68780825558132
O            3.59426122321476       -1.95639795105875        0.70020363658691
O           -3.03439028436652       -0.11672001243051       -1.86520170976148
O            0.18141355839049       -1.97313527455546       -0.58219485486283
O           -3.74317252771824        1.53710597424967        0.13986869078482
O           -2.22175820826452       -2.64297492211437       -1.49171899605722
O            2.34438928691197       -0.43875134283286        4.10141588947046
O            3.89516196662137        0.50777659136967        1.92620246820284
O            2.03827087625934        3.76628931634412        0.14728796515541
O            0.10947469597024        3.17516671415447       -1.67292765087712
O            4.12159407956246        2.12492410245765       -0.24691181032704
O            2.58114795790143       -2.01341671263168       -1.83519365081420
H           -2.58148392025510       -1.73462012680004       -1.62180866488592
H           -2.36219893068497       -3.12359587350603       -2.31700581788459
H           -3.12321348088192        1.49278243209213        3.57391219279577
H           -2.04909065800093        1.92071245290792        2.52385349287303
H           -4.53220185812103        2.07813901735763        0.02662486139293
H           -3.68218237422337        1.31325916110282        1.08581349152542
H           -0.35595218668995        3.69116449772604       -2.34276472638725
H            0.07544261152840        2.24188702048607       -1.95203295073479
H           -3.68971765389032        0.06284549781691       -2.55080203712338
H           -3.32753920072118        0.36912841809998       -1.06598400189377
H           -0.68562040498427       -2.25793253506215       -0.95504870615186
H            0.33108199566047       -2.52091371661464        0.19260723046447
H            2.67280842182723       -2.46904575463165       -2.67827758130080
H            1.66831616542215       -2.17121781950146       -1.50909934805452
H            4.84094785332708        2.50101940241048       -0.76354493062041
H            3.45590807410544        2.83567905671340       -0.10257875132667
H            2.08688101733170        4.72636398681757        0.20614230773502
H            1.41691597379335        3.56156504693889       -0.58126193907942
H            4.20034273913203        1.10956390920290        1.22424407453648
H            3.86913201746021       -0.37021476569297        1.50316872937179
H            2.03837149067065        0.24128324701516        4.71623732537418
H            3.05691457293295       -0.03605964111643        3.58202044222924
H            4.07324134338589       -2.77052308997991        0.88741518689978
H            3.37773304699598       -1.97796673410108       -0.25255978006103
O            1.57069121456734        1.48098264028597        6.06194957027085
H            2.06033917032205        1.50503130573569        6.88591631145464
H            0.64016407245611        1.60224628557112        6.27251085560214
O           -1.79278564066771       -2.40435488143234        6.73166053847310
H           -1.73443874000272       -2.39455827287507        5.76823622544903
H           -0.95137598054873       -2.73580684344910        7.05679614222977
O           -0.47876584297564        6.18318802958715        4.87179318262144
H            0.01578527549768        5.66786579014076        4.22264992383811
H            0.16652744004241        6.61174706600627        5.43843963652440
O            1.66159743025830       -5.84068322367129        4.40183919714213
H            2.22135664120863       -5.10977117242681        4.68343017416309
H            1.11199887060864       -5.50729999363749        3.68283931781426
O           -3.85549605243969        2.04114649756542        5.22007488185098
H           -3.80089129918238        2.90962766524422        5.62718155159093
H           -4.33411149463170        1.46366743103759        5.81894999806206
O            5.17317047352139        5.24489642064439        3.93348012786208
H            5.85987177829565        4.77469281820249        3.45092308640770
H            4.54541044565199        4.57974788061297        4.23832753853715
O           -2.81953588066370       -8.25357817478951        2.73242106343416
H           -2.69649092360467       -8.10809995508080        3.67566089827912
H           -3.14347475072827       -9.15109767061547        2.62304994780622
O           -3.43261216235647        7.12761897982983        0.27071001604084
H           -3.11316728873760        6.49670004764389        0.92692120878506
H           -3.73104193590582        7.90437020987434        0.74814511476069
O            4.91434486242482       -4.46097744470698        0.97204560949894
H            4.56034303838582       -5.25162199261980        0.55500843210647
H            5.64677533787928       -4.72745660280201        1.53086852525361
O           -3.00088036714251       -2.94556638968627        1.07838703617457
H           -2.83730411345600       -2.99921886361452        0.11387356225469
H           -2.89508187009058       -3.82441447901544        1.44171829769606
O            2.12482040978509        6.62498544321286        0.11967497406331
H            2.83344205728724        7.18424613374268        0.44436347700667
H            1.36575394416317        7.18740566695867       -0.05630899827407
O            0.74504341762822       -7.28673325592790       -1.32226529742006
H            0.85601152464027       -8.23448118086709       -1.22433633442238
H            0.07868986350969       -7.01157447564732       -0.68257819946791
O           -6.11075160109616        3.11484761412980       -0.05895165310579
H           -6.42218664273163        3.60764016697530       -0.82193943501248
H           -6.60708847369936        3.41647349244512        0.70583509174768
O            6.36209102213838        3.21622608827249       -1.66398183758211
H            6.98158596194067        2.67049448642887       -2.15520012604153
H            6.79703336356085        4.04969917592356       -1.46934056673152
O           -2.44350250801449       -3.95490211159233       -3.98053627020069
H           -2.23666890365940       -4.88205655426447       -4.11580625122378
H           -2.22935808923196       -3.49003952510234       -4.79476517129768
O           -1.47482130133900        4.61588303693464       -3.51800888616293
H           -1.39292386528570        5.55660412431596       -3.68389258895282
H           -2.41357248177824        4.40690449100226       -3.49056762217771
O            2.52265193588934       -3.27777493875124       -4.37519990102986
H            2.40745768720827       -4.21901307640620       -4.52371367353566
H            2.41271855709420       -2.83328638807332       -5.21992627296474
O           -5.09023900405134        0.23080461977267       -3.76683469453758
H           -4.98987514784200        0.21006276545520       -4.72159752949989
H           -5.91566567835466       -0.20958875736767       -3.54940143323616
O            3.35541476308090        2.63329407796503       -5.75347177710892
H            3.46240570930008        1.84599037153936       -5.20707256436736
H            3.29467053515363        3.38099650642126       -5.15033922290280
O            0.03610149242792       -5.06166959168947       -8.52362092427898
H            0.25755706028852       -5.81006878047241       -9.08362806804385
H           -0.39876387796704       -4.40765207049226       -9.07963812732701
O           -0.88955376417413        0.29685041614451       -7.17294315010714
H           -0.19575122329721        0.36413111452500       -7.83313316518391
H           -0.93833175187742        1.15002327558151       -6.72765187250493



