%chk=maltolate_solvated_2_Reduced_Structure.chk
#p B3LYP empiricaldispersion=gd3 scrf=(cpcm,solvent=water) scf=(maxcycles=500,xqc,maxconventional=1000) 6-31+G(2df,p)

Reduced_Structure

-1 1
C            2.42327625410393       -1.33885040363651       -0.85529632024062
C            1.03426926956401       -1.35634345277827       -0.29543818233725
C            0.31122478628994       -0.21846954618107        0.02890084932750
C           -1.06127552591698       -0.40645735228313        0.55146932496834
O           -1.75517622691407        0.59832381307013        0.84572469470460
C           -1.51814166590178       -1.75450826650519        0.68338856846981
C           -0.71073380411813       -2.78758355818684        0.34099751519963
O            0.52938789840510       -2.63231849486638       -0.13046953798713
O            0.75492773221776        0.97285561202840       -0.10418783649863
H            3.11607969095236       -1.88622770883060       -0.21441883515298
H            2.45808709220149       -1.79307654539364       -1.84738757205348
H            2.73388484823646       -0.30158052382430       -0.92433595288557
H           -2.51118600675409       -1.94999321710572        1.05508179266741
H           -0.99234651117526       -3.82713771914642        0.41828077166943
Fe          -0.85110954893617        2.36213157226708        0.51827954921881
C            0.82640906459540        6.84128801868982       -1.23473823536411
C            0.00412910832632        5.75768080741697       -1.86229281959999
C           -0.30772405542044        4.56184108144045       -1.23053738888829
C           -1.13548096997945        3.59217845955177       -1.98025635323400
O           -1.46774870843702        2.50760618741049       -1.44078450957130
C           -1.51405653145082        3.97062089631165       -3.30461159341655
C           -1.14628303312500        5.17768316489028       -3.80638118196518
O           -0.41805076705831        6.05997037766316       -3.13174617398374
O            0.07554127819167        4.26062283771594       -0.04833539364862
H            1.69172796441343        7.08088606615746       -1.85387970678887
H            0.24216289179467        7.75332430106404       -1.10705901296743
H            1.15148712673046        6.48544138381580       -0.26272888334359
H           -2.10958834937480        3.30172992487711       -3.90455925923699
H           -1.42491119758671        5.53590741318575       -4.78712756198981
C           -0.16730847703408        3.03547798592476        5.53869243253131
C           -1.23737411979502        3.48442109568816        4.59146975028732
C           -1.24705160114226        3.18505352111771        3.23613946658636
C           -2.37557908500265        3.70649698053635        2.43304480845681
O           -2.43018115219832        3.46242729249072        1.20306031339231
C           -3.35651586656800        4.47432102398152        3.13350671386092
C           -3.22674132012709        4.69951996299778        4.46543720074088
O           -2.21469643693103        4.23945715506596        5.19474245388711
O           -0.34808158941699        2.48762547941232        2.65362067682806
H            0.35289226445380        3.88803721102800        5.97678339250577
H           -0.58453238753668        2.44757531775819        6.35745685680278
H            0.53657535923668        2.43119589049938        4.97623570119090
H           -4.20410443972997        4.87431706507973        2.59985689904855
H           -3.92941197689812        5.26929849651949        5.05602240712114
O           -0.02089179505471        0.96911804123791        8.98070665550730
H            0.48607363719507        0.16158114354025        8.84698906695299
H            0.45842822949512        1.49829973702559        9.62574830417208
O           -4.08704952196288       -1.29003041541818        5.98226865900117
H           -3.62897963298370       -0.97602557454210        6.76797882403062
H           -3.73843136469931       -0.78884762554694        5.23798511208994
O            0.51313543745697        8.92993057491960        6.79975583467088
H            1.27929922788539        8.61652270740823        6.30827576449155
H           -0.24750662165160        8.43445699814288        6.48023428256817
O            1.75215439679845       -2.76193223938139        5.34318522110495
H            2.51912489511244       -2.95644958565521        4.79577251949362
H            1.25382924023042       -2.07508940048439        4.88850946944754
O           -7.77627620830619        3.07574312417290        6.14135745358180
H           -7.28489197706068        2.24822562516418        6.12456155919751
H           -8.07105550656376        3.24247940836834        5.24040544117505
O            4.32683278459802        6.14083246790814        3.71698221966490
H            5.03202525448441        5.49952855845974        3.84831704501934
H            3.56365180490154        5.65090374159152        3.39287326348364
O           -2.39907875558606       -6.28862174802924        4.15248643205493
H           -1.54420403066228       -5.96681166792704        4.45620274355289
H           -3.02598834810281       -5.56713379142708        4.26646258341438
O           -3.81897378471426        9.97300145927736        1.50983732275204
H           -3.19784038908999        9.24362208682680        1.60273133534126
H           -3.49400849256250       10.53032254654413        0.79550804968149
O            5.25339703279207        0.78623383127531        3.40096878746763
H            5.74220421837900        0.65994295025312        2.58192061674130
H            4.34857726859763        1.00371465204637        3.15234602487281
O           -7.15475337617369        0.25112040712455        1.72410137341512
H           -6.94164853001617       -0.63227693638242        1.40779383514746
H           -6.33817287078020        0.76081368638614        1.69439268943871
O            3.59716006987532       10.97389519709284        0.90441175521872
H            3.37835387952480       10.24508797006129        1.49396794545544
H            3.88925338112588       10.58325112670825        0.07457433225626
O            2.59918447456130       -4.71255480675894        0.46065521554128
H            2.41657137740838       -5.43501319372299       -0.14841707659911
H            1.94375446326685       -4.02741788391553        0.27144019000431
O           -6.41390738645136        6.37625592304118       -1.82099893249313
H           -5.65837009058147        5.81408988888586       -1.62064123952363
H           -6.41750199148538        7.08122660423628       -1.16608035109039
O            5.62703351102686        4.01545378007701       -0.81294522947789
H            5.60738145417121        4.97457070566428       -0.73967743411165
H            4.72189323749883        3.71081149478025       -0.68758440258857
O           -5.93294072259226       -4.30508754567980       -2.12509121771012
H           -5.10719581746216       -3.83877976439380       -2.29008735000902
H           -6.64164561737293       -3.74566785732902       -2.45845531816409
O           -2.38040812854301       10.98610983745290       -3.83834517035962
H           -2.59559581996348       10.09089964168507       -4.11930227848401
H           -1.42071745951432       11.04138064478350       -3.79111932037617
O            3.65535949350255       -2.94652410841941       -4.12890559892040
H            4.29366097623578       -3.64555225793676       -3.95575514098350
H            4.09069241597280       -2.30675713264003       -4.70126048260027
O           -6.52547002408832        0.83476658924474       -3.26371648173305
H           -5.66276736412474        0.82100864356895       -2.83597911147215
H           -7.00951869714768        1.57638903183102       -2.88799190772387
O            3.21835761754304        7.67008332045036       -3.87620174631189
H            3.55318047217277        6.92196383008517       -4.38043786475426
H            2.90557518802345        8.31879700487097       -4.51440398315793
O           -1.72089578545720       -1.89928165195489       -5.05680078323824
H           -0.97219972183742       -2.46454973955213       -4.84425239851816
H           -1.74541569089035       -1.20620851058787       -4.38894560674403
O           -2.97924404051867        6.03087914671268       -6.64763063345381
H           -3.90071947338772        6.18176304914536       -6.41380958783388
H           -2.97989765295050        5.50340532538574       -7.45275461581605
O            2.83387654756987        2.12140484342037       -5.68763189234877
H            1.99040683743799        1.67602543485550       -5.81551461601005
H            2.93051067173662        2.26221734161814       -4.74021368574514
O           -4.52702313654049        1.21485355815670       -8.50559480727571
H           -3.68797732316892        0.77402853379881       -8.33801676519248
H           -5.10782972971442        0.99760898479431       -7.76930689619692
O 1.9439531311829632 2.4543819407974437 11.15297281607577
H 2.843953131182963 2.4543819407974437 11.15297281607577
H 1.6509417921715221 3.305348658836829 11.15297281607577
O -4.225530505866759 -0.6936684099899013 10.474985373234707
H -3.3255305058667592 -0.6936684099899013 10.474985373234707
H -4.5185418448782 0.15729830804948386 10.474985373234707
O -0.2715176583964516 8.351984292693649 9.796997930393646
H 0.6284823416035484 8.351984292693649 9.796997930393646
H -0.5645289974078926 9.202951010733035 9.796997930393646
O 3.4025349862693153 -3.0128657613935057 9.119010487552583
H 4.302534986269316 -3.0128657613935057 9.119010487552583
H 3.1095236472578742 -2.1618990433541203 9.119010487552583
O -8.349770577677907 3.7917578210109335 8.441023044711521
H -7.449770577677906 3.7917578210109335 8.441023044711521
H -8.642781916689348 4.6427245390503185 8.441023044711521
O 6.246250725984425 6.929697225474827 7.763035601870461
H 7.146250725984426 6.929697225474827 7.763035601870461
H 5.953239386972984 7.780663943514212 7.763035601870461
O -3.0991078788015707 -6.138726178552803 7.085048159029397
H -2.1991078788015708 -6.138726178552803 7.085048159029397
H -3.3921192178130117 -5.287759460513418 7.085048159029397
O -5.11061338897531 10.775189870409857 6.407060716188336
H -4.210613388975309 10.775189870409857 6.407060716188336
H -5.403624727986751 11.626156588449243 6.407060716188336
O 8.401169504800023 -0.9018903362141644 5.7290732733472725
H 9.301169504800024 -0.9018903362141644 5.7290732733472725
H 8.108158165788582 -0.050923618174779195 5.7290732733472725
O -10.152893273702576 -1.4108551310902784 5.051085830506209
H -9.252893273702576 -1.4108551310902784 5.051085830506209
H -10.445904612714017 -0.5598884130508932 5.051085830506209
O 3.627778805339693 11.892998870420397 4.373098387665149
H 4.527778805339693 11.892998870420397 4.373098387665149
H 3.334767466328252 12.743965588459783 4.373098387665149
O 2.4015038290640507 -7.717771018045449 3.6951109448240866
H 3.3015038290640506 -7.717771018045449 3.6951109448240866
H 2.1084924900526096 -6.866804300006064 3.6951109448240866
O -10.179320708290305 7.896205837941142 3.0171235019830243
H -9.279320708290305 7.896205837941142 3.0171235019830243
H -10.472332047301746 8.747172555980528 3.0171235019830243
O 9.95465731405072 4.816367205146742 2.339136059141961
H 10.854657314050721 4.816367205146742 2.339136059141961
H 9.66164597503928 5.667333923186127 2.339136059141961
O -7.175516186658091 -6.629635588487941 1.6611486163009
H -6.27551618665809 -6.629635588487941 1.6611486163009
H -7.468527525669532 -5.7786688704485565 1.6611486163009
O -2.2240813956336134 13.528021784678785 0.9831611734598376
H -1.3240813956336135 13.528021784678785 0.9831611734598376
H -2.5170927346450545 14.37898850271817 0.9831611734598376
O 7.764868256189411 -4.754912931741375 0.30517373061877484
H 8.664868256189411 -4.754912931741375 0.30517373061877484
H 7.47185691717797 -3.90394621370199 0.30517373061877484
O -11.945795101723284 1.9930176386316378 -0.3728137122222879
H -11.045795101723284 1.9930176386316378 -0.3728137122222879
H -12.238806440734725 2.8439843566710232 -0.3728137122222879
O 7.081958805296607 10.287138358613934 -1.0508011550633478
H 7.981958805296608 10.287138358613934 -1.0508011550633478
H 6.788947466285166 11.13810507665332 -1.0508011550633478
O -1.2972229223803204 -8.534209565773534 -1.7287885979044133
H -0.3972229223803204 -8.534209565773534 -1.7287885979044133
H -1.5902342613917615 -7.683242847734149 -1.7287885979044133
O -7.742778568007907 10.787210915839166 -2.406776040745475
H -6.8427785680079065 10.787210915839166 -2.406776040745475
H -8.035789907019348 11.638177633878552 -2.406776040745475
O 9.776491278429502 1.0327963589992037 -3.084763483586537
H 10.676491278429502 1.0327963589992037 -3.084763483586537
H 9.48347993941806 1.883763077038589 -3.084763483586537
O -9.343230172129942 -3.4973578976258195 -3.7627509264275965
H -8.443230172129942 -3.4973578976258195 -3.7627509264275965
H -9.636241511141383 -2.646391179586434 -3.7627509264275965
O 1.4342852865782074 12.337559682864192 -4.440738369268662
H 2.3342852865782073 12.337559682864192 -4.440738369268662
H 1.1412739475667664 13.188526400903578 -4.440738369268662
O 4.075290419486562 -6.034630786401818 -5.118725812109722
H 4.975290419486562 -6.034630786401818 -5.118725812109722
H 3.7822790804751207 -5.183664068362433 -5.118725812109722
O -9.72164728579987 5.304107638877147 -5.796713254950785
H -8.82164728579987 5.304107638877147 -5.796713254950785
H -10.014658624811311 6.155074356916532 -5.796713254950785
O 7.288588748415181 6.186479776418595 -6.474700697791847
H 8.188588748415182 6.186479776418595 -6.474700697791847
H 6.99557740940374 7.0374464944579795 -6.474700697791847
O -4.0081341575313925 -5.237331728733533 -7.152688140632911
H -3.1081341575313925 -5.237331728733533 -7.152688140632911
H -4.3011454965428335 -4.386365010694148 -7.152688140632911
O -3.3877515675175816 9.679290779229135 -7.830675583473971
H -2.4877515675175816 9.679290779229135 -7.830675583473971
H -3.6807629065290226 10.53025749726852 -7.830675583473971
O 5.309115783443868 -0.7506702200449888 -8.508663026315034
H 6.209115783443869 -0.7506702200449888 -8.508663026315034
H 5.016104444432427 0.10029649799439633 -8.508663026315034
O -6.513825938384481 0.9453629842034965 -9.186650469156096
H -5.613825938384481 0.9453629842034965 -9.186650469156096
H -6.806837277395922 1.7963297022428817 -9.186650469156096
O 1.7314148735634904 6.374364215416611 -9.86463791199716
H 2.6314148735634904 6.374364215416611 -9.86463791199716
H 1.4384035345520494 7.225330933455996 -9.86463791199716
O -0.3261872719552561 -0.23918420957227404 -10.542625354838222
H 0.5738127280447439 -0.23918420957227404 -10.542625354838222
H -0.6191986109666971 0.6117825084671111 -10.542625354838222


