%chk=maltonate_original_Reduced_Structure.chk
#p B3LYP empiricaldispersion=gd3 scrf=(cpcm,solvent=water) scf=(maxcycles=500,xqc,maxconventional=1000) 6-31+G(2df,p)

Reduced_Structure

-1 1
 C                  1.90291913   -0.62481259   -0.72100786
 C                  0.46823365   -0.84591405   -0.20441685
 C                 -0.32965864    0.22226706    0.00147855
 C                 -1.77004234    0.04069683    0.30520519
 O                 -2.38901112    1.10096485    0.54119338
 C                 -2.32791022   -1.37041986    0.28198818
 C                 -1.45007842   -2.39211896    0.06177788
 O                 -0.00365272   -2.19164622    0.07018450
 O                  0.02731574    1.41660868   -0.03581056
 H                  2.54825749   -1.39519616   -0.34646259
 H                  1.90681962   -0.64837324   -1.79234946
 H                  2.25057533    0.32366208   -0.38140372
 H                 -3.37269632   -1.55320062    0.42533868
 H                 -1.83626616   -3.37727803   -0.11402132
 Fe                -1.35205911    2.60305210    0.26402418
 C                  1.76834571    5.43515442   -1.79767827
 C                  0.43711554    4.91396284   -2.36755477
 C                 -0.34076501    4.10695614   -1.60396722
 C                 -1.48800678    3.39111322   -2.20549308
 O                 -2.12604167    2.67116445   -1.40788379
 C                 -1.75247307    3.57736163   -3.68917831
 C                 -0.92651125    4.42718471   -4.38168838
 O                  0.03591986    5.29801014   -3.71509061
 O                 -0.18495959    3.86766208   -0.38955540
 H                  2.54390894    4.71758275   -1.99224589
 H                  2.01869535    6.36959853   -2.26319449
 H                  1.66898436    5.57780942   -0.74227151
 H                 -2.55169510    3.05274271   -4.18064806
 H                 -0.99097416    4.46055648   -5.45054881
 C                 -0.49490954    2.61863228    4.88644799
 C                 -1.78791897    2.94323562    4.11788717
 C                 -1.75200517    3.08603051    2.77827509
 C                 -2.90576278    3.64608787    2.05347542
 O                 -2.68843740    3.74595368    0.84802759
 C                 -4.13123552    4.07637625    2.84628124
 C                 -4.09532246    3.86033036    4.19434124
 O                 -3.04112329    3.08013026    4.84201107
 O                 -0.79918526    2.79504855    2.01665037
 H                 -0.55632924    3.01273401    5.88027024
 H                 -0.36785559    1.55846519    4.93219134
 H                  0.33937836    3.05777060    4.38296856
 H                 -4.97844676    4.53932906    2.37075276
 H                 -4.86923891    4.27242759    4.80417075



