%chk=maltolate_solvated_3_optimized_Reduced_Structure.chk
#p B3LYP empiricaldispersion=gd3 scrf=(cpcm,solvent=water) scf=(maxcycles=500,xqc,maxconventional=1000) 6-31+G(2df,p)

Reduced_Structure

-1 1
C            2.21448873592642       -1.12163916437737       -1.07868939595700
C            0.84265712939281       -1.12880433070013       -0.47631542980377
C            0.16478498041854        0.01624820543163       -0.08417394319998
C           -1.18483098371337       -0.16221480617062        0.50226823373751
O           -1.83721283020368        0.83593400564292        0.89052336316908
C           -1.67443151643170       -1.50447069510594        0.57985503721845
C           -0.91750268527333       -2.54265946338797        0.14892264410376
O            0.30914541492934       -2.39598941619057       -0.35352495133328
O            0.63818824087144        1.19777613015347       -0.20264130912411
H            2.91506163135443       -1.69671292967875       -0.47270861206190
H            2.20773624332130       -1.55529917513732       -2.07896239120848
H            2.54018801420153       -0.08836138846459       -1.13445293421340
H           -2.65891484059859       -1.68883071982472        0.97867554760581
H           -1.24074275924720       -3.57300185402505        0.15873277569701
Fe          -0.92645827476158        2.62766998739815        0.50300094072302
C            0.60627636427808        7.04161963962262       -1.62648706637547
C           -0.21735813550009        5.90465783172803       -2.14910587445155
C           -0.49227124726724        4.75573527102793       -1.41795463250278
C           -1.35363142643750        3.73658766796375       -2.06034784502490
O           -1.67488738665307        2.69810591027269       -1.43377832076151
C           -1.78229697287791        4.01604747693721       -3.39552661223170
C           -1.43499509553186        5.17942226160265       -4.00243582170376
O           -0.68781450093562        6.11124877230567       -3.42118602052483
O           -0.05069713836490        4.54350851764383       -0.23705835631253
H            1.46876751692710        7.23293311021063       -2.26576934102241
H            0.01804220061772        7.95829919222968       -1.57635864691894
H            0.93651990846625        6.76886998089076       -0.62978977396330
H           -2.39622117424417        3.29952999830550       -3.91697112441119
H           -1.73938931511404        5.45529637259765       -5.00171109110418
C           -0.01110291070865        3.09707319752249        5.52971754965346
C           -1.13213940648273        3.57525728914020        4.65892842595986
C           -1.18920939406501        3.37058672771575        3.28522883651804
C           -2.37453687874421        3.89764321091766        2.56911416375942
O           -2.48959753765961        3.73181998603611        1.33109238410146
C           -3.34583208231419        4.58079372475771        3.36589985817315
C           -3.16877912099997        4.70726589156462        4.70573880114627
O           -2.11179868319413        4.23428578598832        5.35433875174761
O           -0.28476917891656        2.75775554951352        2.62184455064720
H            0.47851920921017        3.93441913502810        6.02700668231954
H           -0.37683371097643        2.42021801193594        6.30317431269074
H            0.70195611703430        2.57881051872017        4.89754788610124
H           -4.22855560727318        4.98570617560852        2.89788582942318
H           -3.86797396507049        5.19824063225897        5.36573167432740
O           -0.93625717532014        1.23629894981995        8.42383674833147
H           -0.61265329071621        0.42568077557935        8.82825381812955
H           -0.97361497951733        1.89445794189200        9.13908882161752
O           -4.33375844619365       -1.28835854468537        5.42869864282025
H           -4.02343211438546       -1.58166851976227        6.29081274325236
H           -3.82523444405591       -0.50563345227357        5.19677865086310
O            0.07690641548257        9.15347124705676        4.92018082420851
H            0.76594843707085        9.75375414789354        4.61783071845848
H           -0.08892458981839        8.52853567561672        4.20761831702271
O            1.38819447265390       -2.42362383326892        5.10645630008763
H            1.87482003910471       -2.29164022158781        4.28744113693650
H            0.58628609130399       -1.89712601174016        5.04054677746459
O           -7.49872990937325        3.86923424062744        6.05645176133337
H           -7.39003302370071        2.91294997644769        6.05612777802457
H           -8.01832553613895        4.09440248928713        5.27831820462731
O            4.10786556505288        6.16754964697505        3.50552261536175
H            4.30675426379151        5.58046676237839        4.24086139301173
H            3.39434749125446        5.75585166437327        3.00774784909741
O           -2.10381269192164       -6.44341802375851        4.70688301561097
H           -2.28857299100583       -5.52219567059765        4.49926642314013
H           -1.95471693471375       -6.47126983671439        5.66715537962626
O           -4.11243642499134        9.70638167593245        0.54979769782713
H           -3.83685426699609        8.78754944429342        0.48166844294206
H           -3.30917522301196       10.23890214844813        0.42368731775066
O            5.42970719613029        1.11776286479973        2.87158308109871
H            5.78718664696189        0.79459816153045        2.03892682635097
H            4.48530135180169        1.24696531903908        2.73759909286951
O           -7.39663050666587        0.89963352041574        1.75227536227676
H           -7.46302427567857        0.09829656556840        2.27985771144424
H           -6.46303683129140        1.12975100238188        1.70674372525072
O            3.47685991800748       10.98025077861477        0.82228812518674
H            3.57090049505074       10.03619124139422        0.98179957373923
H            3.05840257606277       11.07953787977330       -0.03833718219529
O            2.47392855438506       -4.46307960381481        0.08042829457760
H            2.34667105047546       -5.15398029816360       -0.57762348455946
H            1.74223371911430       -3.84373877486065       -0.03802079808343
O           -6.95596876330919        5.41940378435280       -1.32497280954946
H           -6.10425402688804        4.97727255682942       -1.25391595501572
H           -7.57772447711679        4.91524206380001       -0.79141909263001
O            5.40004646324894        4.26370098709417       -1.35740760047058
H            5.44539099218729        5.20651968252266       -1.17155939756351
H            4.54183321715796        3.96029301100397       -1.04494604431481
O           -2.50685344668511       -5.51751312659407       -0.47854475853477
H           -3.13310648347581       -5.56216158772245       -1.20762311100635
H           -2.59411554406330       -6.33926748623014        0.01451908223157
O           -5.96948298444224        9.33389359174728       -4.65748634402159
H           -6.68917624937042        8.69527723358588       -4.66719366752823
H           -5.35333165824918        9.04409641473555       -3.97739534540558
O            4.42294038903338       -3.11045265434737       -4.87305499920936
H            5.25557621038961       -3.16211915261347       -4.39316827331491
H            4.50481803592393       -2.39091729601348       -5.50704508113261
O           -6.09522533642721       -0.11162374303676       -3.30084748984871
H           -5.43760995005581        0.19629417492717       -2.66923062915408
H           -6.91455644335243       -0.23816487063438       -2.81264135979939
O            3.09604322967207        8.13890541369685       -3.95091053801477
H            3.39547552211871        7.61929706228704       -4.70320035198532
H            3.01483402255982        9.04767088415675       -4.25622641337503
O           -1.42011655922463       -1.98065136567340       -5.51204434687245
H           -0.81565108127856       -2.68573331028207       -5.26256476246212
H           -1.68848634209583       -1.53758045857222       -4.70137284508900
O           -3.00703311333952        5.73256282287736       -7.08369143363140
H           -3.96722979033104        5.71824142081237       -7.02360121688080
H           -2.78492774161954        5.54761683105290       -8.00151500608393
O            2.51416121526450        2.02541453025423       -5.72588782065571
H            1.80447775482357        1.41178195340479       -5.51495852281728
H            2.69086061960900        2.53056188261504       -4.92695648584036
O           -4.31638236593587        1.12934146039452       -8.44868922944240
H           -3.42048100819050        0.81905017547371       -8.61237223123154
H           -4.43661504913986        1.15229930746545       -7.49412764055929
O           -0.84306929325332        3.22077231946509       10.43064438037783
H            0.05758962492293        3.50898575553338       10.61159731307824
H           -1.36532095658434        4.01467011766705       10.27795685931539
O           -5.82417600686774        0.32495598593376       10.28530412522914
H           -5.51188272362309        1.17526935754222        9.95951628564924
H           -6.72593371845362        0.45454037779814       10.59421224302013
O           -0.14442829892040        8.58531326686751        7.70525967120299
H           -0.03782989519811        8.72726484502264        6.75057813264030
H           -0.91263175380665        9.10429989207792        7.96157512781626
O            5.80206164413338       -1.50533048225899        7.67594399937632
H            5.55545470792648       -2.35387667912234        7.29474255509950
H            5.35609416324351       -0.82599041347302        7.16039246690997
O           -7.88412478465742        5.40532774112069        8.37337026812744
H           -7.75742248106266        4.84824914265419        7.58498724337355
H           -7.21275950282188        6.09248848158598        8.32692188909054
O            4.15999247446258        5.33726400597356        9.25531154836828
H            5.02046207756366        5.77482224125277        9.36264944703044
H            3.60001335229124        5.96169315269277        8.78458312159124
O           -1.68828534959638       -6.17516016442428        7.48544224460027
H           -1.13397969844503       -5.48230785603679        7.85883226886834
H           -2.42699768052326       -6.29706767481172        8.10469469554824
O           -5.23118762124471       10.44425794877870        5.55768360081034
H           -4.68445675700397        9.72403154672054        5.22817146151854
H           -5.29695943249637       11.09351592779163        4.85014680007483
O           10.87796925803739        0.05917710904903        4.25857958316921
H            9.98525774213796        0.35243722544233        4.04860576983491
H           10.88983070152886       -0.09282187144282        5.21631321825487
O           -9.43266637918658       -1.35522673534576        6.55106231469285
H           -8.70247539315989       -1.79826883594472        6.99545362693286
H           -9.73927540607369       -1.95028416459543        5.86007874273902
O            5.33240292395122       10.57021420400306        6.00916561778311
H            4.99344256212475        9.80186027406661        6.47949119190672
H            5.63677162211378       10.26250819724125        5.14949003502471
O            3.48697920439133       -7.02056193890499        5.06277472716538
H            3.56797769056051       -6.58024066752943        4.21085110599284
H            2.55875460580338       -6.97549467714876        5.31379401290190
O           -8.98386050574623        7.89564151099581        2.75908810452646
H           -8.13204870772181        8.19637491529705        2.42743537326587
H           -9.66104522948477        8.37194457652896        2.26935770152411
O            9.36038476001335        4.66816193733628        1.96171428303766
H            9.25532559410662        4.03652598199624        1.24380752357341
H            8.48725342641917        4.80392504292356        2.34319098165962
O           -7.02581304753845       -4.86548686033094        2.53689954995718
H           -7.69790723929673       -4.57263633455491        1.91377829480044
H           -6.22149002395499       -4.37274743258218        2.34493389271486
O           -1.75885363531595       11.26302786585740        0.22348256683519
H           -1.43484656453500       11.70778837887993        1.01323198264939
H           -1.63941831777870       11.87386529114732       -0.51062803485856
O            7.86540624737113       -2.57793867622884       -0.58615589399616
H            8.74675525252135       -2.80247672660098       -0.27343252244843
H            7.24490335751667       -3.12890944389590       -0.09911765871193
O          -11.25426410196473        2.21426695921851       -2.00131904385894
H          -11.29672784116126        1.49123517339893       -2.63496594963450
H          -11.11522872149267        1.82194034891026       -1.13363465949461
O            7.96468906755569        9.52817100913033       -1.47058160055504
H            7.11145192688249        9.60637009866464       -1.90905130491103
H            7.98326768504761       10.18710202383651       -0.76888613957109
O            0.64009308501612       -9.26252381101021       -2.92263376110171
H            1.00411500558689       -9.55462002238077       -3.76388686903317
H            0.16017752234782       -8.44632666724221       -3.09531494125394
O           -8.81782473528198       12.02143912561961       -1.16581100097763
H           -9.13363222519333       11.63638432865617       -1.98951960878782
H           -8.05663178207806       11.50266332371780       -0.88561234143008
O            8.18917071240530        0.62137187177315       -4.48596054460293
H            9.01249782977385        0.50040917134670       -4.00311665963859
H            7.51402865879893        0.84220560422983       -3.83664322817576
O           -9.22053277383639       -4.75559093065863       -3.26746941505224
H           -8.51436194990385       -5.39173021175911       -3.11731174815772
H           -9.28613011584332       -4.62533129579018       -4.21880336829156
O            1.48392059030663       13.82227604966852       -3.49543475602773
H            2.18193836702187       13.66587465676135       -4.13905699261170
H            0.67222608907241       13.96786813835681       -3.99108269621179
O            2.96045197183789       -5.51651782358593       -5.29696348428947
H            3.54194402287768       -5.95300854043843       -5.92687276582605
H            3.37427039285390       -4.66101664053131       -5.09842780745011
O           -8.37170264163281        4.47256212770786       -6.00105201407809
H           -7.95809487676961        3.66791401313074       -5.67267654645498
H           -9.18721994403580        4.58844480854829       -5.50466510838152
O            7.46921365354603        5.71876033258761       -6.33010099555123
H            7.25674004213360        5.12922307621070       -5.59946440145353
H            7.87118631086932        6.50630764586692       -5.95041999077048
O           -5.69594490114965       -3.92295414837071       -7.58737382735349
H           -4.90108132016618       -3.79573301453466       -8.11461683901049
H           -5.67813142923692       -3.26274056241404       -6.88700567074266
O           -1.19801517999640       10.50731805382719       -6.74473980652377
H           -1.20820857084589        9.99830309117921       -5.92776362501068
H           -2.01857297873131       10.31244680224881       -7.20772664114047
O            5.66956214396006        0.12395106597591       -9.48864859322312
H            6.13286580662912        0.53253353153124      -10.22609296315135
H            5.82398577154726        0.68020531363221       -8.71843357655908
O           -6.42956090417116        0.24781394614434      -10.17878855415322
H           -5.70981802525289        0.52568939704409       -9.58837252577733
H           -6.74260550730294        1.06493785135853      -10.59512004752613
O            2.48651063066494        5.90675565910653       -9.13837049634777
H            3.27353182436185        5.40070197908638       -8.91354693627101
H            1.77182601218559        5.57248483860628       -8.58768787285431
O            0.78708102824685        1.35506365069827      -10.97979093446646
H            1.11044534813163        1.11690854163833      -10.10483393061595
H            1.52160607993299        1.76423365558518      -11.44851608935942
O            3.92443488463650        3.72774716189053       14.45979620524388
H            4.08505542529192        3.54560498607097       13.52823044111875
H            3.16385230629963        4.31600224802748       14.50353946297182
O           -4.12594687891461       -1.71578462692255       11.34480569590574
H           -3.60489834293114       -1.19833557225051       11.96603407609386
H           -4.72044279246479       -1.08678250352844       10.90542539145960
O            0.33256046468518        7.72246215302553       12.83484907729986
H            1.00691688433965        7.82236632205722       12.15523175986370
H           -0.45651237034714        8.16899445224516       12.51306435451115
O            2.27299672703547       -4.11200535024018       10.86245504217913
H            2.76855792160789       -4.66648899954492       10.25117203977525
H            2.58927360326548       -3.21094418480720       10.74326703812523
O           -8.92658037548432        4.44147315979908       10.81172390548859
H           -8.52588659959975        4.73115084165725        9.97340601302242
H           -9.74716987974726        4.93617624139885       10.89222805941326
O            6.66341454998235        6.66595400787807        9.55759385179887
H            7.43374551625526        6.34295877018636        9.07933942495563
H            6.96954246751060        6.96619367207161       10.41907429827720
O           -3.80717854906228       -6.25937732097353        9.35326149748527
H           -3.66463699042621       -6.18042657816219       10.30160736048583
H           -4.63366226533123       -5.80900782807694        9.15145947503513
O           -5.00480846284302       11.32215436090700        8.25651963546905
H           -5.08219949876831       11.00477310304188        7.34054478023912
H           -5.90503970749750       11.45939473542184        8.56554464471562
O           10.55384070654742       -0.36325983496357        7.08275395873071
H           10.43288333705173       -1.23131308648072        7.47978531647744
H           10.09371374599624        0.26863517604791        7.64426170279016
O          -11.34265875859156        0.12615310088517        8.06287168819812
H          -10.70476857511337       -0.38324753301559        7.53485887028859
H          -10.85183520761817        0.86738349635316        8.43118342441141
O            4.03076442466842       13.07867121464152        6.29869365019329
H            4.45302322756198       12.21286203055064        6.16682429175348
H            4.55186410735899       13.52563443189094        6.97200422161302
O            5.47274108984648       -7.03025910080520        7.09636915262485
H            5.45259742783036       -7.94343025666608        7.39713102408486
H            4.82184829709485       -6.97506745643232        6.37667289771373
O          -10.29417279911460       10.43804986966769        7.14946365569802
H          -10.15079659749997        9.48809034193931        7.08889447266230
H           -9.99763012917263       10.81824522096773        6.31632868543211
O           11.29452228450561        5.27457411215227        6.66204311573859
H           11.43690655284505        4.44801435020035        6.18974616404000
H           11.26985365168765        5.97275802340764        6.00020004552110
O           -7.46080431580293       -6.00619490753771        5.12454251115422
H           -6.79620075167157       -6.70017650750328        5.17027776785725
H           -7.36104066316436       -5.60379325579813        4.24669626489872
O           -1.27233253319070       14.08186764103783        4.99681244871917
H           -0.33168149314243       14.26113283062178        5.09192317949270
H           -1.56487092285131       13.67071875563958        5.81649047959205
O            9.37482644877042       -5.26389874661942        3.57221857370748
H            9.69753962037720       -4.47671573496025        4.02250694577029
H            8.79805604023656       -5.72527907072773        4.18882967531451
O          -12.21742186814976        2.54469280818988        3.48473785118035
H          -11.70113719360995        1.73582898545472        3.56062641674995
H          -12.59765937499462        2.71674674977192        4.35167810524326
O            7.86442895959618       13.61352844333176        2.56021421453702
H            7.89043946442025       13.93589188146539        3.46638751887812
H            6.96287269916969       13.73801020611526        2.24641382458797
O           -2.11533262557652      -11.00785051059958        1.60392491018591
H           -1.36999530006995      -10.68112234917106        1.08981424536862
H           -2.16199770901769      -10.47524099241580        2.40432057714062
O          -10.74832143463994       12.69863475248247        0.79200752144676
H          -10.08755537875554       12.46815834652703        0.11562383587727
H          -10.76348731196703       13.65930910512460        0.82848218384305
O           12.55994833039559        0.56692624809064       -0.78118936418310
H           12.53368771898224       -0.13650296769599       -0.12490215052880
H           12.71498365324953        1.38752693041133       -0.30294866255331
O          -10.48778897042514       -3.00048109481235       -1.39875749040434
H          -10.00344796204282       -3.58970724703527       -1.99900584285272
H          -11.41715949851541       -3.10088402165016       -1.62461196100881
O            3.15977282804892       16.59131787260285        0.67422963791415
H            2.96497210558726       15.65386755541841        0.77431436872958
H            2.82800218595226       16.85427497965408       -0.18983730307233
O            6.23244665531086       -8.25263081903729       -1.99394657765308
H            6.24927776109747       -7.56459023174653       -1.32117184732054
H            5.32035536357552       -8.33316754823441       -2.29087164682805
O          -11.75417846204964        7.81860101570326       -2.41018073825364
H          -11.54168979191642        6.89859994655412       -2.22414525224992
H          -12.25870837900523        8.14775719915030       -1.66048144750990
O           10.28741719347651        9.12766995976587       -3.04846699414471
H           10.93346881897688        8.78378641532543       -2.42457876361570
H            9.46815137960112        9.25394104491179       -2.53911660087228
O           -5.00141829439183       -8.27278758570951       -4.44254713860995
H           -4.29229076015113       -8.91891336819133       -4.51653021401596
H           -5.17568384593626       -7.94555016380212       -5.33066172632987
O           -4.10016028056420       14.15837084525714       -3.83011557066161
H           -4.09202971915071       13.65832134385773       -4.65243577934122
H           -4.83833323333330       13.82858578113391       -3.30793225234713
O            9.13510586731051       -3.75533296153268       -7.23770543092600
H            9.46659281580821       -3.54253985090946       -6.35956612660644
H            8.69224560166515       -2.96782215515559       -7.56997164484529
O          -10.38866002133854       -0.31083004916074       -6.87607461613779
H           -9.50251618802506       -0.62168565967510       -6.66429170313803
H          -10.44237638794587       -0.26009562769699       -7.83516195500719
O            6.24275194722276       11.89904817278099       -5.97336614858492
H            7.17113365520187       11.66170855122385       -6.06187099647797
H            5.83871330342091       11.80159553269121       -6.84134966096132
O           -0.98276048840646       -7.65521162937991       -7.67406024140383
H           -0.18833361966846       -7.89304716331606       -8.16156196976111
H           -0.98424087676991       -6.69573441150361       -7.59825709370106
O           -6.85636487377457        8.20152148246626       -9.76566428434130
H           -7.56347025012703        7.87861617213516       -9.19812656420931
H           -6.50144570721668        8.99219920495690       -9.34760928159229
O            8.06443456390804        4.77117997178374       -8.96072876667066
H            8.95725332570583        4.44567092786688       -8.81177975417188
H            7.76735226677013        5.12992956785938       -8.10919473806605
O           -8.14874143807407       -4.72996699017899       -8.79695978187908
H           -7.30871769517401       -4.55291818002617       -8.34195572102139
H           -8.20007412172228       -4.08723652967573       -9.51131951092002
O            1.24471283916114       11.20251827479453       -8.08045834434859
H            1.39464375264756       10.38861703164635       -8.57159002742232
H            0.41216734158749       11.07360468368820       -7.59849221267265
O            2.35525441925025       -4.47393040299079      -10.28310780792080
H            3.01418099279942       -3.81843678464730      -10.03285030835232
H            1.69103878877816       -4.01720742726788      -10.80871603098154
O           -7.11529823007161        2.89888079869357      -11.11563535935420
H           -6.48106823794669        3.46812626302144      -11.56283546882276
H           -7.59386357868948        3.44899393299827      -10.48708928461439
O            4.90228814543879        4.32387919447242      -13.53010199875215
H            5.60690073944044        4.37089696469900      -12.87600776567500
H            4.37150374151824        5.12008852405748      -13.42720373318200
O           -0.79010805535148       -0.50496277977704      -12.44201691737176
H           -0.26024236374792        0.12960891321146      -11.92927291945792
H           -1.55909043712555       -0.01916551895371      -12.75429138321249


