211
 energy: -371.255740165151 gnorm: 0.000901590929 xtb: 6.6.0 (conda-forge)
C            2.10323857340948       -1.10203311831107       -0.87745086649818
C            0.69971216203288       -1.12829241011521       -0.35469010068445
C            0.01891043719115        0.00040600170675        0.07619371204568
C           -1.36070058560914       -0.18772470277285        0.58050517884733
O           -2.01153702416899        0.79911345503860        1.00225967768586
C           -1.87566214070646       -1.52136468368445        0.54414910525106
C           -1.11584899697926       -2.54187046335311        0.07763530713450
O            0.13828377938643       -2.39024034999752       -0.35156628766776
O            0.51592113492455        1.17817848480301        0.06213314371648
H            2.75047609718104       -1.76577433774675       -0.30379770329551
H            2.14243207353026       -1.41407071428101       -1.92174890379421
H            2.45877400474410       -0.08062036653206       -0.79428176171187
H           -2.88322910331057       -1.71516364973578        0.87491079922446
H           -1.46319119836228       -3.56072217356578       -0.00741980231269
Fe          -1.07109937298232        2.58239978194463        0.72821995529159
C            0.69489832891514        6.98266794342728       -1.21812826268697
C           -0.14021486942070        5.88405260389475       -1.80095194089194
C           -0.49089962693277        4.73221115171617       -1.10897082139834
C           -1.33199887989663        3.74467257054662       -1.82173211129613
O           -1.70306797148813        2.69903063231582       -1.23498297021288
C           -1.68223787029887        4.06135505183820       -3.17099960416325
C           -1.27330471677033        5.22808189515023       -3.73198390357364
O           -0.53156750172823        6.12577347404712       -3.09330093926560
O           -0.13349970193461        4.48909770272152        0.09431380712881
H            1.58352224464031        7.15997472903260       -1.82486670342734
H            0.13319298656498        7.91589165329348       -1.16579890219262
H            0.98148653273210        6.67775981248154       -0.21732748372371
H           -2.28794430903512        3.37459760582234       -3.74044432659521
H           -1.52615320940918        5.53996631213071       -4.73520518882005
C           -0.34491665644150        3.14789777268713        5.76705369998861
C           -1.44843330048644        3.57786985116522        4.85033130722987
C           -1.45990640635455        3.33117099184904        3.48301770017706
C           -2.61083442918249        3.84965449887736        2.70910803677953
O           -2.66522031095613        3.67065688066398        1.46824390356706
C           -3.61672380234559        4.54228864803337        3.45230664992559
C           -3.48892154392840        4.70524651771244        4.79376604626762
O           -2.45204816983531        4.25784588925507        5.49227413836837
O           -0.54030365462152        2.68926939299016        2.86927205174236
H            0.10056225267097        4.00940030751506        6.26450255730681
H           -0.70758902461068        2.47239616925434        6.54335861426716
H            0.40438277471133        2.64338522744527        5.16685330701848
H           -4.48400794602371        4.93123529335924        2.94321702603773
H           -4.21518100069776        5.20698004608117        5.41578424245728
O           -0.49231885091112        1.26925959735148        8.82186734215808
H           -0.01578025331670        0.44917131648829        8.98372833735835
H           -0.12981154896245        1.91583579250927        9.44973256746708
O           -4.41413536049201       -1.11996062977792        5.86248756818677
H           -4.10390798358758       -0.79422699255645        6.71262432370626
H           -3.94050763250268       -0.62750502212231        5.18500832419691
O            0.12092761929051        9.05956518769684        5.83210840882866
H            0.95599247826140        9.43459359579047        5.53422114828351
H           -0.20256346980740        8.49360730214043        5.12382328352921
O            1.10007629391472       -2.54992019022029        5.04634243887697
H            1.71937408934813       -2.58269060952961        4.31103136995315
H            0.54546295385405       -1.77600845650853        4.90878599440603
O           -7.59518908772149        3.41702955911942        6.26888133631832
H           -7.45829077988096        2.46446498693993        6.27756493547679
H           -8.15051969881244        3.61180069617028        5.50711574934527
O            3.97666425891032        6.14729715345209        3.95322708567637
H            4.14347992459632        5.60010950732382        4.72660461689713
H            3.22217633564618        5.76015971347888        3.49764067550656
O           -2.18713180112484       -6.94100038121429        4.30835614519826
H           -1.84158936275743       -6.17978711884206        3.83089904016849
H           -2.34464623901880       -6.63831283326737        5.21633597320784
O           -3.43573421871664       10.06139702941223        1.83715421817442
H           -3.26015186865318        9.13330470896345        1.65511254444061
H           -2.65625960689341       10.54632299556345        1.52123165777612
O            5.05159447758627        0.88303251034565        3.45782043005972
H            5.45395928232402        0.56989523124378        2.64172549992648
H            4.16461763973639        1.18290466312265        3.23369773713746
O           -7.47305798304675        0.54814631324591        1.83174241957190
H           -7.22789023413022       -0.37951133180832        1.90138563580670
H           -6.65315158851815        1.04867926573173        1.76677868659319
O            4.22722441301417       10.76371252670428        0.66519546490118
H            4.09195071466416        9.85984430896610        0.96752057552701
H            3.73857070294111       10.85846132332949       -0.15853514768593
O            2.34813432785389       -4.46218810901719        0.03218106597578
H            2.38346280241190       -5.07327306044230       -0.71059536917948
H            1.58797739357194       -3.88660580148711       -0.12263962781073
O           -6.79022936948300        5.70689355060673       -1.54897211058515
H           -6.11478569685512        5.04688283367406       -1.36236031315196
H           -6.90649015998607        6.22315542220522       -0.74570340995910
O            5.46358555177307        4.15977838534239       -0.69913869808141
H            5.51375854334579        5.07196134195819       -0.39819163596248
H            4.56330933668157        3.86270707969863       -0.53162245891573
O           -3.60707277114315       -4.68819903903202       -1.34202948219224
H           -3.92084981075236       -4.36354825233790       -2.19199118467765
H           -4.36208112991837       -5.09782276923364       -0.90791906988732
O           -3.86206730373710       10.15745304790011       -3.38626093788473
H           -4.00883891019452        9.33025661446345       -2.91697153553493
H           -3.02836514599262       10.06596045794681       -3.85777298250126
O            4.48631130323332       -3.00172848462826       -4.96009766861921
H            5.27725507341131       -2.99769322865387       -4.41224885571307
H            4.49557961576275       -2.19137086305986       -5.47960417449524
O           -6.06083060808215        0.05175270315802       -3.23411384154470
H           -5.34357229425092        0.21705654137287       -2.61364336770570
H           -6.86813018885781        0.37012906532030       -2.81883361176157
O            3.20410173213012        7.73056968483621       -3.71971361845409
H            3.68994810676945        7.04306499837972       -4.18595636620608
H            2.90689047537431        8.36073194832519       -4.38327242809499
O           -1.29633224876062       -1.67049786228916       -5.53818097131301
H           -0.84788445337857       -2.46641875530711       -5.23706311314946
H           -1.50473166315008       -1.15083915223013       -4.75545084840063
O           -3.03775566325304        6.09532107799543       -6.68742289319486
H           -3.95499878677942        6.30937535628256       -6.48923916277370
H           -3.04256673834973        5.58742489619551       -7.50490883254621
O            2.82666207086059        2.22309239077824       -5.44011777948413
H            1.99882885680484        1.78544527344343       -5.66073308959125
H            2.77606816813195        2.46043976000458       -4.50947097066293
O           -4.41240453420122        1.22148216592616       -8.53785896639542
H           -3.55482490836752        0.90404284863056       -8.83795388925818
H           -4.45061063755368        1.07823006773295       -7.58639134053433
O            0.76062831995856        3.18047069740773       10.52634493022943
H            1.69598673656649        3.35280909559821       10.37500649199757
H            0.33726854189369        4.03322090265457       10.66661261444975
O           -5.47635550054354        0.66990644615242       11.02779138201705
H           -4.81346666300554        1.32830030670917       10.79617202094732
H           -6.32440433842648        1.00735472136438       10.72229590590073
O           -0.15959080947625        8.27930073606895        8.56574792052700
H           -0.04841719647034        8.53817160807489        7.63557863785993
H           -0.95716908878869        8.72125647390518        8.87102016466049
O            5.42440941880502       -2.62816610175247        7.95806018400050
H            5.07917056605872       -3.40956122957115        7.51440625215366
H            4.91843807980186       -1.87588648955810        7.63447396457285
O           -7.97235007214318        4.90696618001140        8.66662462250861
H           -7.83805499027008        4.36174130205807        7.87286453129560
H           -7.66013747757610        5.78783527703234        8.43822267739391
O            5.09639706680187        6.71738136988008        9.26877902520303
H            5.70583144038090        7.40256109672790        8.97697390654239
H            4.20698548930034        7.06451175209809        9.14588662690848
O           -2.64282844436020       -5.72892843337566        6.88921226721160
H           -2.02801183822434       -5.09427053708522        7.27099591195644
H           -3.51546984923862       -5.52017573104592        7.23713299644714
O           -5.33281059294725       10.39882346350077        6.60907979781813
H           -4.66568143990789        9.76584581262517        6.32496798982357
H           -5.35728543406732       11.09395548381199        5.94391030942088
O            9.57926909076270       -1.12473433722314        4.52892493361457
H            9.53757934544144       -0.21131567759778        4.82882157116749
H            8.90976091514073       -1.61069039415444        5.02082390903432
O           -9.96443366694684       -1.62709703902191        5.97330790589290
H           -9.05865795527639       -1.94821011490635        6.02770498088394
H          -10.26835148704383       -1.79761317257114        5.07632357924285
O            5.43631780296630       11.08226578476528        5.80151161867066
H            5.65364359791437       10.27464465785983        5.32492793336154
H            5.35714356740190       11.78129759979438        5.14496689035045
O            3.41241300303910       -7.08703718318301        4.89963705710445
H            3.38061630835162       -6.90467133299884        3.95507793795412
H            2.50185857465582       -7.10292235813576        5.21143977199738
O           -8.90394712817977        7.64045135201226        3.21036034000283
H           -8.14158534070872        7.94991503696984        3.70984420208834
H           -9.36607686449151        8.42093968067890        2.88954668053030
O            9.25061551507678        4.16779933789756        2.90029604233844
H            9.15569982895024        3.58151360625034        2.14287238241281
H            8.36646438015124        4.31519655665609        3.25144192084526
O           -6.96364065533833       -5.14748974779299        3.12855338066441
H           -6.68755469733188       -6.06764486974674        3.07189133357983
H           -6.20814563234354       -4.64876945465896        3.45673031696902
O           -1.08831610960416       11.40567024286632        0.91503956388172
H           -0.46985052164695       11.83055355902906        1.51779995118221
H           -1.07938566295928       11.91175595907723        0.09670866158329
O            7.77860518203858       -2.84102834305337       -0.40654625361127
H            8.36439683031739       -2.69015968030751        0.34166520988865
H            7.03013730859103       -3.35053798944617       -0.08023372462567
O          -11.07085494881506        2.41876773292147       -1.72894364828870
H          -10.97280373342428        1.69912685184534       -1.09745041629998
H          -10.76173103010111        3.21900755768859       -1.29231588160947
O            8.08171633795629        9.50883004163469       -2.77392928592166
H            7.60412726125133        8.83668687197791       -2.27703603350024
H            7.78466485330999       10.36332049832095       -2.44616678703930
O           -0.23118583697796       -8.94527513450429       -2.54108971070705
H            0.23059028990295       -8.43958052231838       -3.21744143246278
H           -0.72839070307716       -8.31583795414340       -2.00918166083991
O           -8.27147983534117       11.26324206789880       -0.67656403553923
H           -8.18796800120728       10.79065473232237       -1.51081869365107
H           -7.37977664613828       11.38752710102288       -0.33591061428898
O            8.02667559487620        0.86318657476028       -4.38131879341730
H            8.53910203971186        0.36551403652894       -3.73687886665966
H            7.27706451905746        1.24178829550612       -3.91056942173072
O           -8.60091744170907       -4.92606466110199       -3.09913967498609
H           -8.42627755416597       -5.51106252013427       -3.84269870187587
H           -8.44571862746378       -4.02756428283533       -3.40790217060506
O            1.41900432568158       12.94558003555470       -3.75116952351032
H            2.24208518004750       13.02727099199453       -4.24275274067743
H            0.71343532008557       12.84762768687438       -4.39817714694986
O            2.87397508656293       -5.30792324592201       -5.48752345762934
H            3.20469364589148       -5.53660366589294       -6.36144902093746
H            3.36313918947976       -4.51439963856652       -5.21778620366145
O           -8.35029506766916        4.49361124795332       -6.20904875263158
H           -7.82070526389558        3.81280721362471       -5.78190930813900
H           -9.06169733058800        4.71434200889561       -5.59970864112355
O            7.38120717253982        5.87374969238639       -6.92290345411702
H            7.68118454059930        5.02354498361959       -6.58628173541918
H            7.83806938661323        6.55353685075941       -6.41760311271168
O           -5.98547708683866       -3.91118804139106       -7.47186492591299
H           -5.08235226197682       -3.59966113760339       -7.58782393060388
H           -6.56557627606072       -3.20996598397267       -7.78525060768224
O           -1.04899311669810       10.73097767712001       -8.17494376229648
H           -0.54230275525730        9.91614464686248       -8.25071875568563
H           -1.96634388471571       10.50808788853462       -8.36094989602164
O            6.13400712615935        0.28572590331976       -9.22777322590070
H            6.95830949113149       -0.08591217974889       -8.89851849423787
H            5.94491287421595        1.06317728840267       -8.69274354561899
O           -6.80147742007358        0.93173537840201      -10.06889410691146
H           -5.96437681819365        1.02237338442579       -9.58361827229484
H           -7.26989655132231        1.76213448054725       -9.94174059603983
O            2.13648230284430        6.17612025465370       -8.79616945200815
H            3.02431416949663        5.83407352476152       -8.65185967543045
H            1.54981702216508        5.69652620185596       -8.20283900372884
O            0.96834559618266        0.94020457411615      -10.26231430841429
H            1.44032804032490        0.15177984546966       -9.97610237480906
H            1.63231065870014        1.60475312783763      -10.47086249395393
