46
kojate_ox_low_spin.log	Energy: -1773792.1516359
C         -3.11808        2.37294        0.81708
C         -3.52211        3.54914        0.20999
O         -2.90917        4.11096       -0.90952
C         -1.81036        3.41085       -1.46352
C         -1.32437        2.22252       -0.93126
C         -1.99019        1.65059        0.27956
O         -1.47834        0.52514        0.72681
O         -0.29595        1.48585       -1.40673
C         -4.71335        4.41375        0.72712
O         -4.96021        4.22669        2.15839
H         -3.66716        2.02290        1.69990
H         -1.40631        3.92341       -2.34791
H         -4.51717        5.47403        0.43713
H         -5.64461        4.09229        0.21036
H         -4.09492        4.60008        2.57044
Fe         0.08572        0.05594       -0.38992
C         -0.61185       -3.87700        0.77064
C         -1.41894       -4.79636        0.12108
O         -2.14536       -4.52331       -1.03104
C         -2.03174       -3.22614       -1.58286
C         -1.24207       -2.22038       -1.01831
C         -0.48729       -2.54385        0.23366
O          0.22215       -1.55947        0.73736
O         -1.08925       -0.96970       -1.47181
C         -1.63214       -6.25724        0.62600
O         -1.46413       -6.37922        2.07579
H         -0.08761       -4.18757        1.68269
H         -2.63863       -3.12150       -2.49254
H         -2.62661       -6.60468        0.25575
H         -0.85705       -6.91299        0.17149
H         -2.23705       -5.79761        2.42570
C          3.49578        1.57751        0.96278
C          4.75498        1.44585        0.38399
O          5.03180        0.68419       -0.80471
C          3.89092        0.03546       -1.39390
C          2.62501        0.15673       -0.86448
C          2.38766        0.94673        0.33788
O          1.04767        0.93173        0.69329
O          1.44368       -0.42842       -1.31474
C          6.06873        2.00858        0.95263
O          6.92342        0.97313        1.57654
H          3.38758        2.16857        1.88066
H          4.16201       -0.53877       -2.28906
H          6.61991        2.54196        0.13910
H          5.83620        2.74295        1.74981
H          7.00882        0.30381        0.79898
