313
 energy: -42.731209517144 gnorm: 0.044386252237 xtb: 6.6.1 (8d0f1dd)
C            5.09950999993554       -0.53682999998111       -0.59731000007745
C            5.12389999999396        0.19498000005339        0.59739999995131
C            3.90834000000400        0.62865000002474        1.24110000001711
C            2.63983000002409        0.29339000003215        0.62230999998896
C            2.61439999997734       -0.46929999997458       -0.62240000003593
C            3.85774000002268       -0.88845000007152       -1.24109000001710
O            1.35090000003963       -0.70608000000507       -1.06741000004618
O            1.39492000004364        0.61398999999004        1.06718999999595
H            6.05286000000830       -0.85235999999631       -1.05642000002024
H            6.09615000000689        0.44623000001160        1.05655999999836
H            3.94930000001144        1.20451000000614        2.17419999991370
H            3.86025999999922       -1.46571000001622       -2.17421999997636
Fe           0.03588999998688       -0.00135000002124       -0.00006999997422
C           -2.09382000010029        4.64225000003824       -0.67673000059054
C           -2.69250000005686        4.38167999995343        0.57007999963432
C           -2.43720999994929        3.12904999984136        1.26366999992675
C           -1.56295999995324        2.16339000001703        0.67852000001558
C           -0.93007000002316        2.45356999998632       -0.63087999998020
C           -1.22179000019751        3.70256000003159       -1.29997000006747
O           -0.13092000003084        1.44707000003491       -1.05723000000722
O           -1.23194000002029        0.95260999999893        1.16804999998528
H           -2.30083999999239        5.60031000001531       -1.18573999989638
H           -3.35853000000479        5.13153999997657        1.02621000001147
H           -2.93417999999054        2.92485999994644        2.22194000007231
H           -0.77259999999793        3.93231000000484       -2.27590000005261
C           -2.98102999995281       -4.19123000016308       -0.56958000005888
C           -2.40052999994013       -4.49167000006509        0.67684000015186
C           -1.46693999994185       -3.61285999999745        1.29971000005739
C           -1.09231999998830       -2.38614999991287        0.63062999994928
C           -1.70495999999285       -2.05387000014113       -0.67835000010466
C           -2.64246000007232       -2.95849999992129       -1.26317000009156
O           -1.29353000000448       -0.86798999996281       -1.16787000000503
O           -0.22717999997290       -1.43567999998208        1.05673999999151
H           -3.69623999993177       -4.89451999998475       -1.02543000002974
H           -2.67124000000945       -5.43372000000609        1.18584999994632
H           -1.03372999999888       -3.87241999999502        2.27538999994138
H           -3.12508999999595       -2.72119000001396       -2.22113999995573
O            1.18042527352234       -0.64813467047693        3.53559891284822
H            1.29194060768074       -0.25850207089476        2.64858818034798
H            0.22134712360247       -0.76095542440071        3.58821291851036
O           -2.43546726134260       -2.41774680368860        5.59566395598237
H           -2.68966324227353       -3.25553885464893        5.16635960562299
H           -2.11615682987025       -1.86216540347758        4.85679595258343
O            1.83748635374522        3.62301102473279        3.50790572488139
H            2.15818527167056        2.81221611983801        3.94339137354744
H            1.79305515146674        3.39949181655894        2.55901542505634
O            2.41512258445584       -3.20463033788334        2.93170794447156
H            2.14089291831920       -3.24516741090390        1.99325949291069
H            2.00320849528477       -2.37834205382256        3.24192793193412
O           -3.99114035093912        0.49415858354356        0.23458579818117
H           -3.03876615811871        0.53984476227268        0.43748039457176
H           -4.09372642977642        1.10761030617885       -0.51442450985984
O            4.40725913725186        3.64196926577185        1.00667091599468
H            4.73661508690240        2.74246890344181        0.88017727620162
H            3.44895593033517        3.54279195463404        0.88846665184406
O           -3.28835815900407       -4.72977502477630        4.01126571946623
H           -2.97768482609299       -4.58096924654091        3.10416004790850
H           -4.25871577468667       -4.76719599194148        3.93833857511205
O            1.57803860239731        3.33022744910969        0.56046714241688
H            0.70533386666252        3.52032572070870        0.19181308368969
H            1.53639975821507        2.36325049796340        0.65911688556864
O            4.90337064888183       -3.02523839703472        1.27917383276725
H            4.88090081015158       -2.11112122631609        0.95865011045838
H            4.12279114276792       -3.10667029827858        1.85417896074218
O           -1.74328488054066       -0.85193939196952        3.20506098723587
H           -1.51936621190484       -1.66262145770277        2.71219391778993
H           -1.53795354546763       -0.17450112909478        2.53320045338913
O            2.63182214326098        5.35710778186191       -1.27586169825143
H            2.22137475522626        4.67900699171196       -0.70681509400917
H            3.18411031298868        5.87669285007667       -0.66461981771509
O            1.85939832110328       -3.17877849746360        0.07742320486721
H            2.56794612196057       -2.59419905889518       -0.22359067288503
H            1.12450769510068       -2.56030350224237        0.25116752974589
O           -4.16831552030942        2.58455984212445       -1.82867771662163
H           -3.50234142301672        3.09622029242598       -1.34968301891603
H           -3.78185539684898        2.48251235520213       -2.71318559366789
O            6.44448102213741        2.35721513678540       -1.23213412043828
H            7.19616027692562        2.60059107992173       -0.65928449299522
H            6.01499501583354        1.60405299313107       -0.79725912743695
O           -4.35818293108570       -4.73810885660233       -3.98515133645199
H           -3.42220295733764       -5.01367163584865       -3.89936945857607
H           -4.69726797130887       -4.74328824165979       -3.07909556635392
O           -2.24405012983960        6.39276157173607       -3.69744548082111
H           -1.98000295982658        5.73182666434670       -4.36138738734339
H           -1.43782942169886        6.55493830074693       -3.17020429600954
O            1.78774052003183       -2.94902877660913       -2.74376693357323
H            1.92005329186183       -3.65756018878551       -2.09381762037424
H            1.68535478021374       -2.15209403906316       -2.19229530978732
O           -3.78539216102604       -0.30134278420152       -2.82778722802230
H           -3.06716129707865       -0.51302071965419       -2.20742153485144
H           -3.47222241497514        0.49542133138041       -3.29371000314266
O            4.19928623638950        3.31787297567633       -2.74688957625632
H            4.95091198323065        3.04325478885825       -2.18821599650041
H            3.73281228496523        4.01880975492666       -2.25449002678316
O           -0.86763590347192       -2.37100432964871       -3.58235210756460
H            0.07185372678881       -2.58025092794861       -3.40452207050962
H           -1.09609488536396       -1.84136358989223       -2.79983042552975
O           -0.65991762305806        0.58352787834732       -3.42625308463822
H           -0.87180892838024        0.20021821848234       -2.55603664404140
H            0.19856009589139        1.00351846974690       -3.24151340871297
O            2.13394961033165        1.35115767910091       -3.20739491567672
H            2.82770322097411        1.99556772586056       -2.98058998422400
H            2.01054838062758        0.79997995435017       -2.41353848535242
O           -0.22874955565010       -0.50598634166821       -5.95749380333427
H            0.36644083737740       -1.26699108053114       -5.86423206916935
H           -0.50005351436594       -0.29669068317196       -5.04731626366676
O            2.91485820217975        1.14911608891038        4.91643473645291
H            3.63409575510365        0.53371380093291        5.15522268742352
H            2.29719427854126        0.56834197355643        4.43610889228676
O           -4.38268666123199       -0.64746669565269        6.75238802287693
H           -3.71117493988244       -1.31711134343656        6.52713781389388
H           -4.16044733562188        0.08408215246284        6.14852897565039
O            2.19502229231673        6.09144544428521        5.07817716094110
H            2.06718574311763        5.26800632729139        4.56398260264104
H            1.31772316290959        6.51346057744214        5.08733426199901
O            4.95161956964549       -3.38879065111461        4.48480935991346
H            5.54702300315007       -3.94467089907218        3.94764312920847
H            4.09474829616165       -3.39849056076964        4.01532755976799
O           -5.30762989494218        1.91819305466880        2.49734352483293
H           -4.86665989052017        1.49583244912353        1.73426463609464
H           -6.19751277542910        2.13716586931021        2.16964652623448
O            5.99035684071325        4.73887441965070        3.21562497904808
H            5.71732942785861        4.24867470023712        4.01061544366124
H            5.46770784988569        4.32922212921876        2.49672535780772
O           -1.14800268540798       -6.52141078750420        4.98443433805585
H           -0.42387717859740       -6.32228638900420        4.36197758330659
H           -1.88541492159554       -5.95115236560377        4.69527984382127
O           -0.46143841550374        5.31493880358077        2.65761292484208
H            0.26551852325035        4.73169094964635        2.94003700973524
H           -1.06448404405327        4.74037111880665        2.16458445639110
O            7.02207847027700       -4.26208678735224       -0.14918915639150
H            7.29332917593486       -3.67095444994016       -0.87142871905378
H            6.25448660366493       -3.82824637856976        0.25057321405956
O           -4.54625295646267       -1.21350860857381        2.41662529091414
H           -3.63992468431531       -1.17104021896971        2.77119340603497
H           -4.48928897574566       -0.63324401272957        1.63804285052406
O            4.38605195754418        6.53574917920405        0.72934141966968
H            4.45651886244499        5.56757055520053        0.85540798835438
H            4.30693436878592        6.88441968651140        1.63328795617789
O            0.50659146792429       -5.70732029749069        0.05168997105547
H           -0.38559460463472       -5.35264437213856        0.19811956159991
H            1.06047534657023       -4.90414402810320        0.02937252226024
O           -6.89535222942287        2.22882477750588       -1.41592477429267
H           -5.93982439278422        2.31722417828380       -1.56718120791711
H           -7.05448374509923        1.31904927990345       -1.71661739366320
O            8.79122932955748        2.96013815486524        0.46570813853645
H            8.63256482902792        3.86817591461199        0.77876153529966
H            8.86393561854462        2.42890880395765        1.27292812541760
O           -5.71730447174718       -3.36632033114156        0.93835211097396
H           -4.92951415601943       -3.67434842378010        0.46673290436676
H           -5.38238784475478       -2.61356800946885        1.46072874256214
O            0.17902054198401        6.84052124462635       -2.05461596048682
H            0.97067154855465        6.31824252499621       -1.82647247021394
H           -0.18141688130656        7.09898881635921       -1.18525057981304
O            7.98165131588263       -2.52089493977453       -2.32998701156324
H            8.10182056531847       -1.55412291662304       -2.30856673392577
H            7.64897865727700       -2.67642861436210       -3.22973544936366
O           -7.98640106659023       -1.74968201842364       -0.10983311862316
H           -7.29707327698775       -2.32370301313218        0.27083781765452
H           -7.56335623257344       -1.34092457171580       -0.89380720072367
O            7.77657611854653        6.37306771475948       -2.95822999770828
H            7.47722222550516        6.72407158447825       -2.09871528275918
H            6.99094694332673        6.40408499850019       -3.53931982452471
O           -1.47174566543140       -5.24905065890518       -3.82612386996974
H           -1.11701893417287       -5.19773282084002       -4.72338913942552
H           -1.30687997550471       -4.35710014726745       -3.49341116448450
O           -4.86686294929861        7.30149152057402       -2.82015886991534
H           -3.98917135093212        7.00301107469396       -3.12493072902471
H           -5.18912720135643        6.58741560943307       -2.23848186042737
O            8.21557229750080        0.40821331695036       -2.62012175507729
H            9.00248637419210        0.97147886711150       -2.51502608554618
H            7.50564942784316        0.97078350841939       -2.26054243571130
O           -6.63545927858646       -3.58676612307682       -5.42434174760322
H           -5.89803164144247       -4.04116584964439       -4.97767416334959
H           -6.39323754629581       -2.64341633974871       -5.36478494792609
O            5.53120962522892        6.34771759520506       -4.87030511307024
H            5.58437415863714        5.40465110286444       -5.11184332549969
H            4.60440401094321        6.47876221947955       -4.60230100490584
O            1.80565992727634       -2.67739797774807       -5.57908294097434
H            2.54947634696197       -3.19194855075633       -5.92867544808553
H            1.85769942170205       -2.78756262968600       -4.61009961310125
O           -2.81236338324586        2.18397682967563       -4.26216530435648
H           -2.00252390136577        1.68598538592687       -4.02756647278886
H           -2.47974725921875        2.94976956189758       -4.76372271255956
O            5.81408623126369        3.38499133614471       -5.19511711820545
H            6.72221796109375        3.42451019032342       -4.83498674497147
H            5.23480741891888        3.30803179960978       -4.41127353075052
O           -2.83296365070941       -2.71027722866763       -5.63850325987064
H           -2.19868471189897       -2.44507415429684       -4.94572981361371
H           -3.43907423286546       -3.32143853677440       -5.18045729653426
O            0.64476842313693        2.34559818027698       -5.51827611458751
H            0.33631839174300        1.44084656497497       -5.71779196789150
H            1.18894592549595        2.21507359204648       -4.73006558228938
O            2.77532612728149        0.12080611254171       -5.82503032118527
H            2.49473551518538       -0.81004820302406       -5.73959898647639
H            2.60073601494426        0.51559071403519       -4.94919971048289
O           -1.34916262018045        0.58646362859762       -8.36364640235134
H           -1.00718609674038        0.18932746912115       -7.53621419272315
H           -1.06986549348084        1.52243985994563       -8.33882145619084
O            1.59027154742175        2.41222888296542        7.20348238915129
H            0.71746702055820        2.00205246215551        7.29473597244363
H            2.01201197281225        1.95301527849544        6.45171064954788
O           -6.50351437227062       -0.74538159077315        8.71231731689886
H           -5.75066849334378       -0.69614906357499        8.09291454705865
H           -7.24461896260058       -1.06750415447879        8.17275832509762
O            3.31608225407095        4.75217421838992        7.42420541505478
H            2.94045579639275        5.31049290446109        6.71545062316080
H            2.70731985198296        3.98905811803788        7.47525873286179
O            5.00637693081246       -0.71175976133106        5.57060551122162
H            5.87869747103117       -0.64352406094537        5.98884563188649
H            4.96909842264502       -1.61753481756994        5.21308222819641
O           -3.52686892284810        1.14629126546480        4.67454284916861
H           -4.14307511452286        1.45901759727643        3.98639865304236
H           -2.89404710686324        0.57965184137785        4.19994125078823
O            4.94391225718268        3.30269305901493        5.44260131103974
H            4.32879443786287        2.56946113843834        5.25437238691659
H            4.50763317568199        3.80578956291569        6.15346905538383
O           -1.12457913065451       -7.89342893463328        7.51541599106666
H           -1.12141741404288       -7.14149026757723        8.13002659540999
H           -1.13173767545073       -7.48466395354754        6.62948480948751
O           -0.53501193640099        7.12701854105999        4.90167115297959
H           -0.58773366399824        6.55450057662601        4.11158141750651
H           -1.44485042349989        7.19342856303896        5.22989784992576
O            6.73771557299097       -5.11557065550632        2.81739242837546
H            6.55173160794783       -6.06688741685995        2.76928995431675
H            6.86315778188176       -4.83331796160362        1.89390879492072
O           -6.20915926516068       -1.87834057789226        4.73984684997004
H           -5.72869887774356       -1.59203510602237        3.93680718164862
H           -5.69341768794377       -1.48811487788201        5.46894750073608
O            4.41471888808031        7.20313497809295        3.54994222482022
H            5.01895383959471        6.43417240236542        3.56383325119992
H            3.66283535233559        6.92655464588568        4.10510684743280
O            0.95014861539929       -5.81126700305059        3.06420718791656
H            1.45580287826314       -4.98044485830154        3.14230756330298
H            0.79841409919225       -5.90657171992809        2.10493677280590
O           -7.88934918019270        2.56905757879416        1.26739111949342
H           -7.58987608401463        2.45469546105855        0.34533050246897
H           -8.32410869989799        3.44360563221189        1.28795394724946
O            8.17700122982792        5.56487567496046        1.46595785054180
H            7.78719707301159        6.21470060435656        0.85122167061744
H            7.46732720477317        5.35451297361639        2.10276607544114
O           -6.18146147503608       -4.56998483126037        3.60873387995377
H           -6.30785910885518       -3.73017909381305        4.08953284865014
H           -6.15249251150396       -4.29361763859240        2.67260469881524
O           -0.77171197684968        7.45641576478776        0.63268051661752
H           -0.63414843980391        6.77714611394616        1.31941816876391
H           -1.70939307253124        7.69669704884198        0.69535819959799
O            9.87870600794707       -4.21708204969944       -0.83215086053653
H            9.21541661252732       -4.62044047552188       -0.24157448933807
H            9.35110078460528       -3.62424484958564       -1.40101882635996
O           -9.64092965300224        0.13366964109948        1.43402533872761
H           -9.12209865039077       -0.54465984898909        0.96506184175268
H           -9.06764557986436        0.92539444299716        1.43498321244874
O            6.83746185606527        7.47415606692772       -0.40269432595705
H            6.80495491852840        8.44173028177791       -0.35872217520202
H            5.97052442923465        7.17710957823769       -0.06770067829272
O           -0.40380749646537       -7.41292326402547       -2.14373442559972
H           -0.05452330937872       -6.91938556759157       -1.37944483058629
H           -0.76981203256671       -6.71964961767107       -2.72966630294846
O           -5.74963039972731        5.10287083328895       -1.03162818142531
H           -4.88891371704948        4.87134172719822       -0.64624138239837
H           -6.19927279650010        4.25145811414461       -1.17564797346757
O           10.22685545108847        2.41369949503208       -1.98989059423430
H           11.17151085790335        2.55073141802623       -1.83107673624791
H            9.78291169604969        2.63410805951579       -1.14674866800206
O           -8.98325982345601       -4.89794236591870       -6.46396029835514
H           -8.16337494438009       -4.44854291234182       -6.17295330930890
H           -9.42611165455799       -5.17790373904446       -5.64047565389146
O            2.81390925661145        6.59369752353865       -3.93364581962176
H            2.76358088998112        6.17482689465047       -3.05278902406937
H            1.90754888511960        6.87354290343045       -4.12514087585682
O            6.91878560917184       -6.74085482083119       -1.77824675892359
H            7.01520157101065       -5.93812572349871       -1.25965649765178
H            5.97002743283016       -6.85873935055280       -1.87746577721541
O           -6.69852227904280       -0.51228937090207       -2.41261332549437
H           -5.72455563140219       -0.46042320083482       -2.43171739298663
H           -6.93160491701053       -0.72359810870464       -3.33054148769507
O            8.44441392357442        3.71522770407830       -3.98048603078528
H            9.04653694022047        3.27926693712149       -3.34783332920139
H            8.29003941437450        4.60714016367106       -3.61321576399696
O           -0.93542986031783      -10.19378743052398       -2.73447018284635
H           -0.71307428334348       -9.27236217987913       -2.49186315698934
H           -1.88568067321532      -10.15252078390681       -2.95153320251587
O           -6.12604686098896        9.71255585068243       -3.76436450034635
H           -6.19981185695976        9.52836383080022       -4.69532075269784
H           -5.74102190110520        8.89925642884169       -3.37240759958100
O            7.21534231177786       -1.25687284759955       -4.82761087137174
H            7.56727374812438       -0.65625998070626       -4.13984179248914
H            6.66844532851632       -0.67549422176968       -5.38667641382431
O           -5.66120072359311       -0.85660759940696       -5.09885582693189
H           -5.17794217682837       -0.71470276982285       -5.93551549224345
H           -4.99369245348474       -0.67840565629590       -4.40452848705518
O            7.60397256128200        8.27955117130671       -5.60243911460400
H            8.30902394958960        7.97301417755517       -5.00886031647679
H            6.86318407907580        7.66662369977319       -5.43920093932187
O           -0.51619876152595       -4.38452262571401       -6.44242104698398
H            0.24576864691366       -3.81429891505686       -6.21974697296153
H           -1.29565772829085       -3.80148969322436       -6.36455485118565
O           -1.42453849594865        4.36698311530131       -5.67263652236831
H           -0.66804265200961        3.75729103407250       -5.57065983001502
H           -1.46213693655391        4.54945957791341       -6.62247931125790
O            5.60352000102354        0.65667932436856       -6.32492820314293
H            4.65112034377035        0.46843470774533       -6.22236027899855
H            5.70069617759628        1.57918564715585       -6.02113904858503
O           -3.87849363218365       -0.68788281170812       -7.42446436230100
H           -3.47829086429049       -1.41168496101309       -6.89830458076325
H           -3.11086410561623       -0.23803644156691       -7.82864051419985
O            0.02330962911349        3.25443667319644       -8.20636375595480
H            0.77729675889736        3.00699142230973       -8.76850042859595
H            0.30702063693128        2.99135793027748       -7.30938939371207
O            1.75791775605688        1.04974119355009       -8.47277537229576
H            2.12453656380442        0.75929029083596       -7.61673672471379
H            0.85149079047810        0.69191295320403       -8.50513221260926
