370
 energy: -49.231491021797 gnorm: 0.009348015209 xtb: 6.6.1 (8d0f1dd)
C           -1.14428999980200        3.59961999999642       -1.73079999982191
C           -0.59742999976714        2.51442000017532       -0.80841000028861
C            0.00215999936413        2.63195000005115        0.52348000013360
O            0.31288000015631        1.36894999997847        0.94993000001747
C            0.29261000092844        3.74598000017284        1.34780000013255
C            0.08892999961980        5.15480000009011        1.13180000047190
N           -0.44323000003214        5.73412000035511        0.03952000073508
C           -0.51128999913149        7.24368000005284        0.14968999939364
O           -0.61742000013254        1.23504999993406       -1.17725999980474
H           -2.22297000107311        3.44537999996204       -1.90501999999728
H           -0.96029999962702        4.57983000019872       -1.21476000017592
H           -0.63400999925268        3.56276000000720       -2.70791999999846
H            0.75367999963610        3.48080999999806        2.30592000018404
H            0.42531999967458        5.78254000010238        1.98549000009593
H           -1.56452000012771        7.57244000002255        0.04802999983849
H           -0.11172999949627        7.65095000002512        1.10038000052862
H            0.05480999981963        7.69889000036122       -0.68693999986572
Fe           0.00066000031285       -0.00351999959399       -0.12861000016164
C            3.69135000144627       -0.81568000040429       -1.73453000057786
C            2.47971000137492       -0.74468000013217       -0.81017000211298
C            2.28406000102562       -1.31926000049029        0.52357999816111
O            1.03489999837159       -0.95740999960438        0.95058999927105
C            3.10597000027243       -2.12418999963900        1.34912999586982
C            4.42928000001415       -2.64901999933988        1.13373000426059
N            5.19636000114929       -2.47778999909711        0.04095999577778
C            6.53988999914700       -3.16920000003348        0.15231999769022
O            1.38074000016883       -0.08945999938775       -1.17919000180179
H            4.09388999996014        0.19567999996272       -1.91552000095481
H            4.45096999988388       -1.46021999890796       -1.21632999964349
H            3.40350999922513       -1.24571999965988       -2.70857000339059
H            2.64721000041551       -2.38955999924348        2.30830000145935
H            4.80674999952473       -3.25127000011764        1.98861999883188
H            7.34884000038608       -2.41905999990495        0.04920000070200
H            6.69465999942896       -3.71658000015027        1.10403000070622
H            6.65330999941608       -3.88825000254789       -0.68297999933479
C           -2.55271000035822       -2.79357999998256       -1.72745999972343
C           -1.88396999867369       -1.77804999989187       -0.80604999844394
C           -2.28323999873510       -1.31717000022562        0.52638000006315
O           -1.34207000036955       -0.41925000020666        0.95251000014072
C           -3.39343000263179       -1.62015000029423        1.35138000101802
C           -4.51570000027252       -2.49557999977371        1.13444000042050
N           -4.75574000144844       -3.24251999915901        0.04065000018146
C           -6.03316999880939       -4.04989999981175        0.14979001125734
O           -0.76530000105439       -1.15758999981079       -1.17602000179664
H           -2.77182000006666       -2.33464000039899       -2.70613999994880
H           -1.88312999989595       -3.65396999990599       -1.89814000003569
H           -3.49595999975072       -3.11929000072168       -1.21249999920853
H           -3.39169000075746       -1.08956999867931        2.31021000254726
H           -5.22704999962788       -2.51664000023969        1.98859000170672
H           -6.58373999985751       -3.90760000026987        1.10159999749749
H           -6.71007999905316       -3.78094999954752       -0.68514999972499
H           -5.79713000013968       -5.12733000030083        0.04435000166352
O            1.79687834152107        2.47073686393965        4.95230982290609
H            1.91280678125222        1.77000448797972        4.28718834694996
H            0.83936058958318        2.50177120114533        5.09891885942159
O           -2.64409860626056       -0.51402247149834        5.53649571091582
H           -2.03759190106309       -0.88598450804584        4.87084769574880
H           -3.47005445553684       -0.32971400795439        5.05071674583762
O            1.02514075573883        6.85993176510857        4.43266468487918
H            1.70182256797863        6.17349121921640        4.28216534770099
H            0.97917475079004        6.93327550266934        5.40344736472268
O            2.09805084356639        0.46564086678976        3.02980910291349
H            2.91596727024118        0.45433073278183        2.49587128211879
H            1.40255437048883        0.53859640228460        2.35787413574189
O           -5.23188354129519        0.86697587228190        1.45815113131349
H           -5.04290584070434        1.79165057332207        1.22350777805321
H           -5.11991335561488        0.38633912117625        0.61882584349885
O            3.24961610146716        4.83428065167977        4.05421755150227
H            3.65834593701212        5.14113188167505        4.88657457513481
H            2.76668645599090        4.02499324495650        4.30726750445826
O           -0.94422528607137       -1.81093676192929        3.53499150346218
H           -0.92540449653531       -1.35901415334345        2.67775050866460
H           -1.61948560049083       -2.51815101034909        3.45428995299528
O           -1.63193482245166        7.59050634030242        3.38712672254627
H           -0.77390542315370        7.30761277472347        3.75421376743212
H           -1.93310474176792        6.84190526958583        2.83513081637336
O            2.90351227423934        2.26369797043039       -0.36688031188829
H            2.36660926640615        1.50973915531478       -0.65640567278951
H            2.25538111381706        2.83877787539499        0.06295605190203
O           -5.07304080314042       -0.50552879022176       -1.20359517604601
H           -4.82142173430569       -1.37185705641164       -0.83977548098280
H           -4.30110235462978       -0.20850862389868       -1.71682676959084
O            2.25171402687094        5.99805239629212       -1.06172925698619
H            1.34128894860467        5.68566573936165       -0.94873118212759
H            2.60178750227132        6.02502672594705       -0.14762368422330
O            1.11458114315836       -3.24577381041251       -1.28976938724216
H            1.72975338924610       -3.05418038656700       -0.57207711906696
H            0.50163865077369       -2.49849268995547       -1.25229851596966
O           -2.73844360430771        5.34905858179601        1.66224143941552
H           -2.09426140338679        5.46224111803397        0.95062398770354
H           -2.36866433471533        4.64281864573531        2.21336993155745
O            5.76179231387877        2.67216408390216       -0.12863357164565
H            5.83032688651370        3.02146181986614        0.77983192388741
H            4.80052380831800        2.62899090712345       -0.29492408057616
O           -2.16278988077056       -4.45339983335575        0.84734005170442
H           -3.04316330800168       -4.17810797016603        0.53973495861649
H           -1.65021434168003       -3.62938807894211        0.89125668836749
O           -2.22373437181365        9.09831247456553       -2.06241145849484
H           -1.91849176516695        8.19173494095315       -2.20870862042329
H           -1.48348962654647        9.54210896547830       -1.60965529893166
O            2.72275963797085       -4.13059131817439       -3.43716851085218
H            3.56791879101743       -3.64171377200734       -3.35970573598448
H            2.12454765502003       -3.75089941667592       -2.76790352226860
O           -2.79112666216160        0.48518424040105       -2.78452322663327
H           -2.38675351964424       -0.21003098038579       -3.32499711304347
H           -2.08086205344888        0.71359831227628       -2.16343493695645
O            5.52419687202485        6.51949066574203       -4.76322053470105
H            5.35132046744957        6.14634565105546       -3.87938469709233
H            4.93181473977546        6.02033213203522       -5.34791561374333
O           -0.37240792535682       -5.61254462795888       -1.02743127607456
H            0.18522331624520       -4.82683290505524       -1.17593520780549
H           -1.04136669671624       -5.30217125757684       -0.39003579903623
O           -5.96087420640231       10.62233761947873       -2.65808311340455
H           -5.13517405546300       10.82876846324272       -3.13782536369699
H           -5.64016202888883       10.27429156216020       -1.80727666877173
O            5.35281955080756       -2.81810828624244       -3.22861379733387
H            5.56242659030934       -1.90520590678001       -3.50381323842932
H            5.41044864429666       -2.79014402131622       -2.25526005640150
O           -4.48274078434650       -4.87896702022823       -2.74972778664082
H           -4.60327503188106       -4.44898804063324       -1.88360059779030
H           -5.04020486715627       -4.36838728504014       -3.35738399270337
O            0.91189040329473        1.30482276540234       -3.54004479972429
H            0.96900146955938        0.83534629723973       -2.69151517010300
H           -0.03552685108680        1.47342121673957       -3.63786360607830
O            2.68128348760663       -2.64927974784818       -5.97981281694479
H            3.57048947804452       -2.99121899424659       -6.18611769301110
H            2.47493832102416       -3.10567501734550       -5.14530927690237
O           -4.39733350464989        5.26110066375780       -6.54653243055579
H           -4.18310755844604        4.47132606698954       -6.02460284679600
H           -3.53279029638946        5.59957177461857       -6.83865725537744
O            3.44941036119697        0.14915822249520       -6.70195039513716
H            3.11162200979199       -0.73090965949010       -6.44847813819563
H            3.46794713285566        0.67258086748032       -5.87693871116076
O           -0.90027600202422       -1.93108578497663       -4.03068329071377
H           -0.74006055562722       -1.64077350873635       -3.11166658552732
H           -1.09768287078565       -2.88617759034231       -3.96646605405693
O            3.37630695497170        1.79070787381341        7.33557898883049
H            3.27112163305909        0.82553781868637        7.41279128667021
H            2.87252423329463        2.02352932331711        6.53234681455526
O           -2.23845215433422       -1.52865129422666        8.16814230047950
H           -2.36709407867050       -1.13510349723372        7.28565034935020
H           -3.03154872167996       -2.06879251529897        8.31255978324125
O            0.91952093574939        6.97983109582759        7.30337636813219
H            1.59357710047011        6.61091473625746        7.90419103934972
H            0.13522915007941        7.12155103569059        7.85571619352593
O            3.26296474225530       -1.63881641427851        4.72114378975965
H            3.13374734761792       -2.53550220692302        4.36185488250897
H            2.75415233958491       -1.04083182388907        4.14131893005169
O           -5.20427448983836        0.04192432706638        4.12452550555179
H           -5.11574994765515        0.34443487238630        3.20238438816337
H           -5.52994525574116        0.81702135318179        4.60895090720187
O            4.36404851502863        5.64366569115116        6.58694369685801
H            4.95823056607998        4.89254634212831        6.77175717614866
H            3.87050090565653        5.77350481786625        7.41871235803019
O            0.55705683542329       -3.71345863430435        5.22397194093572
H            1.35585793068561       -3.95191303573343        4.71684982694323
H            0.09769935415080       -3.05374242972369        4.66913106559520
O           -4.30670337386668        8.79008704894160        3.50418036372794
H           -3.40919718192133        8.41670722198077        3.59797503388025
H           -4.70399400933991        8.24614870052298        2.79709325036116
O            4.57932959914107        0.50308242252835        1.37328889393831
H            4.68466409678831       -0.36497373803039        0.94460855629793
H            4.05402143484772        1.04318072673564        0.75428322759033
O           -7.75830962512945       -0.35578606808545       -0.20716825344443
H           -6.84968714215592       -0.44009568686971       -0.55544215333343
H           -8.26859610539438       -1.03728996891605       -0.67262951673423
O            3.26655184996323        6.42990907083387        1.63008456745277
H            3.25442125342895        5.86605546412030        2.42555084026924
H            2.80229529917331        7.24490187500988        1.89514197621131
O            1.82871223526181       -5.51063375327616        1.20284688601261
H            2.56156740766019       -5.42460174646736        0.55903084967803
H            1.05591392438704       -5.71912712676905        0.65546191283072
O           -4.68452662313593        3.51790576240093        0.59750502685146
H           -3.94460560170592        4.09450047052797        0.85542262966734
H           -4.54561403262738        3.27343435864120       -0.33597242631710
O            5.79861336142665        3.83979434488196        2.62775345079982
H            6.26915710784809        3.31101529186859        3.29791009591709
H            4.98301233224331        4.13901508197971        3.07580650670496
O           -3.03516229051899       -4.00550936416519        3.64617279201751
H           -2.96782269077352       -4.18203633730882        2.68862977999635
H           -3.93536306593146       -3.68439192670895        3.81181929363207
O           -0.06733832191061       10.40719745594445       -0.68829486428434
H            0.79813461041234        9.95805552083659       -0.69856802652919
H           -0.34594685165260       10.37810240109918        0.24706723838962
O            3.91017970687929       -5.18409517591893       -0.79731056338560
H            3.57494256177122       -4.93041495707149       -1.67710787456487
H            4.32907699349914       -4.38455633982214       -0.43650616500231
O           -4.66657573642668        2.63575926135974       -2.09127224009634
H           -4.05634756419659        1.93726307900541       -2.38800248145618
H           -5.19215273357262        2.89253600116156       -2.87143319438171
O            4.83806136348126        5.39570849158214       -2.22637668310698
H            5.34454440136722        5.47879631555666       -1.39770934072826
H            3.92185523108053        5.56498385022253       -1.93223422450943
O           -0.39816037335067       -8.42196939619212       -0.73601906703113
H           -0.06250732709950       -8.69384608703302       -1.60949627414985
H           -0.35902609681833       -7.44764740851122       -0.78864408405256
O           -4.61761045947735        9.49869982287498       -0.36071450959087
H           -3.81282640149656        9.31572064849012       -0.88558098442344
H           -4.79594327926996        8.67965846127548        0.13936775734792
O            5.92513536278626       -0.02705997877490       -4.03668723478270
H            6.29140702350005        0.12154527001974       -3.14690213903464
H            5.19702309864411        0.61357970478525       -4.10821840000157
O           -4.38008448210960       -7.81332765047219       -2.90732884288440
H           -4.46708338633012       -6.84369300575072       -2.82432582976175
H           -4.08388817372859       -8.11151538498785       -2.02839566107609
O            4.12387611373568       10.48446244557005       -2.24731309640454
H            3.85408220621432       11.39398829440180       -2.04319508161353
H            3.57996410625894        9.92423569691550       -1.66405030634501
O            2.58834915615986       -6.86326206455977       -4.45024689901509
H            3.14317743742021       -6.74748112876049       -5.24312152391584
H            2.56776796176577       -5.96781903225448       -4.06284801105500
O           -6.83901474087921        6.18611560670814       -5.18356700921795
H           -5.96343025252745        6.06566103569824       -5.60045803562006
H           -6.93067990560161        7.14086949059718       -5.01431974189558
O           10.24500029905573        7.50935326410308       -7.31785809976631
H            9.49065387083613        7.67988522284057       -6.72590839788906
H            9.87126644444706        6.98227632304186       -8.04103981260553
O           -1.62434254535571       -4.98479716558053       -3.73570568891756
H           -1.14669132405522       -5.22501383502774       -2.91779952438524
H           -2.56140894745760       -4.92273289619130       -3.45837219608482
O           -4.71298973212336        9.50817671033519       -6.17242008222131
H           -5.57479245879428        9.31117297984373       -5.75991118874861
H           -4.21868621060899        9.98997159552528       -5.48132996312261
O            5.46280848868168       -3.65413802039577       -6.06347339183400
H            5.80452360479281       -2.81675112005739       -6.42448689827341
H            5.49634437194629       -3.51245346070451       -5.09783859771682
O           -8.97991323208491        3.68318758070370       -9.51398909696716
H           -8.42406284072744        3.23387378635884      -10.16950451000310
H           -8.34916027502270        4.10511750146431       -8.90255591834323
O            3.60562636150847        1.88404095185895       -4.22067368227847
H            3.90892868590122        2.52702075921880       -3.56027882910077
H            2.69556672937138        1.66447162807208       -3.94482583280923
O            0.13791250251848       -1.38311635031149       -6.64345190701473
H            1.00121676438452       -1.81800289576788       -6.51622741055570
H           -0.29493931174490       -1.50581978377063       -5.77937371046186
O           -1.74177569668958        6.10357998347474       -7.34747711374503
H           -1.34096548984715        5.81060879949349       -8.18105926108278
H           -1.03837826761990        5.97765980249395       -6.68494969833225
O            2.08845824555964        2.02141532793386       -8.45187647365468
H            2.59786346777636        1.36061344522211       -7.94496629398616
H            1.22759165345964        1.58726922195831       -8.59021358110214
O            2.53626212285486        3.08874689601873        9.75254322587173
H            2.04526811552543        2.40637224713481       10.23297708172128
H            2.84864462262273        2.64258415966467        8.94331725411027
O           -0.17194930249504       -0.92683878155594       10.20475117168527
H           -0.92923667374184       -1.04673303503356        9.59834360480819
H            0.53835633574535       -1.43924029072736        9.77895984436596
O            2.87331956389064        5.86701565840151        9.15161089744246
H            2.74396903175247        4.92453683259664        9.36512553101383
H            3.41448032014393        6.21482986280584        9.87656176513812
O            2.89872023237096       -1.01808315210071        7.49722846696617
H            2.11852167664598       -1.55114031392132        7.71697019944499
H            3.08605541066965       -1.25836453471158        6.56981586307801
O           -5.67769188012933       -2.87021351868584        4.25426059852146
H           -5.46239461638460       -1.91760460487564        4.28819887657833
H           -6.52367324487095       -2.89677508495157        3.77581058319913
O            5.89844366477626        3.25846676010345        7.11218503342110
H            6.34678645500337        2.89888178924525        6.32336392883940
H            5.09692560781354        2.70945260908905        7.21965026799991
O            0.50142143173927       -2.63030819886875        7.90639701198123
H           -0.41817880952244       -2.30734861563998        7.96877965557217
H            0.53914984675250       -3.06094501334177        7.03188427075705
O           -3.69569033558758       11.14639470657345        1.90239125667852
H           -3.96878105171661       10.48948764295210        2.57102362854279
H           -4.02772721830173       10.75848122700720        1.07598482396054
O            5.63300240765712       -0.09813624568325        3.99744087754263
H            4.91635340651635       -0.66107750123238        4.33857418986779
H            5.34495423982630        0.10909863572983        3.08820168387459
O           -7.58985800259014       -1.31675343079179        2.65231519628009
H           -7.65322003656015       -0.98712414504161        1.73626103841812
H           -6.87570269424767       -0.79004091703361        3.05928725770661
O            1.72190784875262        8.84472353986492        2.40062225455058
H            0.91567583439877        9.38407181158210        2.29988604931235
H            1.50080553758394        8.23803849661180        3.13465259854852
O            2.87766156301562       -4.39592428082083        3.65630075374187
H            3.66323463485857       -4.93924392275409        3.81631148259264
H            2.49358781071521       -4.76075331553977        2.83563658337789
O           -7.13613879624499        4.97455857138439        0.65432747634560
H           -6.31296589548325        4.44962748274062        0.70361396437880
H           -7.70676214185716        4.40544778226498        0.11902576905332
O            7.13673964847671        2.18228968991875        4.68433852460800
H            8.06584451260194        1.94565966966214        4.54300521757281
H            6.63658897860246        1.37169964635914        4.47547619128898
O           -0.97773155552286       -6.03826905997542        3.99753240023927
H           -1.74946696131089       -5.45343142036541        3.87707196611152
H           -0.34373597530408       -5.44441249224020        4.43880323875175
O           -0.94354027409542       10.14991927334142        2.11777938793084
H           -1.19027319761245        9.30919351926650        2.55355595855864
H           -1.79300821307909       10.62153128223344        2.04805273587439
O            4.84694293559616       -7.97849453240521       -0.48494355024582
H            4.35089577853440       -8.42528714541553       -1.19879952305672
H            4.56426852042596       -7.04345134393398       -0.54573173579402
O           -7.53502772290730        2.54260971606949       -0.98548407522573
H           -6.61106664073347        2.55311805530774       -1.30314012504411
H           -7.67662251149637        1.62636826588151       -0.68320694587561
O            5.87595663432914        5.85698633669426        0.49914936935855
H            6.05926204509845        5.15609530341263        1.15003063601493
H            5.00737757827654        6.18712584139945        0.80143265749838
O           -1.75938771057635       -8.21902678106908        2.06407804082857
H           -1.44828597619099       -7.51662846396242        2.65872669338260
H           -1.16292795866910       -8.22369680827814        1.29002765197115
O           -5.10728160715615        7.08016092900568        1.21970478547417
H           -4.33508387680919        6.49463579035797        1.36440287009340
H           -5.84793031638132        6.47170637105890        1.05218678740560
O            6.73146391547115        0.20832005696481       -1.31382164374448
H            6.34793334807717       -0.51543871011390       -0.79042096002019
H            6.45620461565330        1.03416905215763       -0.87508991633766
O           -5.54550466524520       -9.33911799741412       -5.08126399863278
H           -5.20819261383252       -8.83328631855608       -4.31767684791340
H           -4.78306058821786       -9.42444877300807       -5.67738989515670
O            2.45695059016288        8.92589801688799       -0.48790852271606
H            2.42130984778248        7.99076522211333       -0.75713820555631
H            2.30889040211319        8.90942226628425        0.47285073673299
O            3.27181809985683       -9.12619815840343       -2.69674616658415
H            2.38759883692437       -9.52938437875096       -2.65213163980094
H            3.14954118378968       -8.36413439845074       -3.29483746072897
O           -6.61291657173427        3.51556799903427       -4.03930606288945
H           -6.71436219259832        4.41205707557214       -4.40906846226209
H           -7.39630306346456        3.37925616242012       -3.48305097539845
O            7.94097309011699        7.94822487026443       -5.68025517683027
H            7.68532306800251        8.80981084419474       -5.31098023308838
H            7.19880321779526        7.37249023355844       -5.41990483274331
O           -3.31352837124179       -8.59345408612369       -0.34323026735768
H           -2.35555735807127       -8.60492093034470       -0.53019771904846
H           -3.34719107934731       -8.50919761775320        0.62339017626356
O           -3.35214906056620       10.92780734051327       -3.98892798308067
H           -2.94235057009166       10.30858459938421       -3.35494258412724
H           -2.67200919506435       11.59450275456548       -4.16432985375897
O            6.17373960701545       -0.93384309425258       -6.76211061801808
H            6.28791557555035       -0.61559163742999       -5.84721689658995
H            5.32201945204987       -0.53944331753446       -7.00770497727090
O          -11.87121593682432        3.67253855016990       -9.24787923364923
H          -10.90338634969532        3.68825900872080       -9.37523415889349
H          -11.99604677180616        3.58843461297411       -8.28787687412126
O            5.96367075617307        9.47124360874864       -4.27147391305181
H            5.72650075360624        8.52753875763556       -4.36854722970065
H            5.35708536464006        9.81692960042257       -3.59020583063909
O            0.52399581878701       -8.77712694577774       -3.52877745612236
H            1.16341217328672       -8.12684595259165       -3.87956800652693
H           -0.31967516505681       -8.52297299148876       -3.93671600473636
O           -7.22403092337785        9.02806695998521       -4.67347622770566
H           -6.84099916391745        9.54657714530140       -3.94156063858106
H           -8.13592023424830        9.34576264199522       -4.75492523866684
O           13.08832020133256        7.94556463082529       -6.98348240352521
H           13.24395017181592        7.62738696002129       -6.07806850799757
H           12.12968468015323        7.83143172049721       -7.12619235063503
O           -1.99480075235971       -7.77371650735640       -4.62271566792460
H           -1.79243694284429       -6.82824647177094       -4.48913661344045
H           -2.80407654407931       -7.90254626745989       -4.09300518930165
O           -3.15703301118069        8.50545994809980       -8.43155542844703
H           -2.69448597569870        7.73162216287578       -8.06470325574926
H           -3.69379292520739        8.85365636690559       -7.69325390940677
O            4.28291710127771       -6.21980069526148       -6.73043484879800
H            4.71257583025547       -5.37294217117890       -6.50362097849643
H            4.31028615487259       -6.26824903912472       -7.69867622851454
O           -7.09028931243770        4.89117713642798       -7.72906199730174
H           -6.15324943613416        4.96102301089660       -7.47344855713141
H           -7.55121206847253        5.31299611298651       -6.98318011727410
O            2.62981417963201        3.90444254684276       -6.24681019639994
H            2.43119947515283        3.33834740036615       -7.01649698948518
H            2.96971419761875        3.28049665115185       -5.57716664896637
O           -0.39244908305438        0.55028133569029       -8.66125715157574
H           -0.21932116638374       -0.12325820053629       -7.97624495376565
H           -1.34386342021307        0.48838848734744       -8.83879137636507
O            0.40609320141137        5.62241036661633       -5.47584343518299
H            1.14506279065386        5.05630359324443       -5.75043109141050
H            0.54412442217447        5.76401432872754       -4.52708526460196
O            2.82869977765656        4.20204221960758      -10.21280603883800
H            3.14196146612090        4.87066712941457       -9.58063693588539
H            2.57354054708938        3.43685469320570       -9.66308494331741
