352
 energy: -47.350664619339 gnorm: 0.009675280839 xtb: 6.6.1 (8d0f1dd)
C           -1.38376999969427        3.56890999969945        1.03845999976454
C           -1.14659999947795        4.80979999988750        0.48222000109808
O           -0.36568999979502        5.03377000013742       -0.67411000023798
C            0.24380999989790        3.87996999997205       -1.28188999946018
C            0.05061999983586        2.59425000009784       -0.79348999948326
C           -0.79521999964695        2.41224999973429        0.42324999974542
O           -0.91384999997824        1.12742000026007        0.77576999991857
O            0.53095000003060        1.43446999995166       -1.28289000016530
C           -1.66969000036025        6.18584999964285        0.96892000072690
O           -0.82524000003590        7.27461999997377        0.45021000035610
H           -2.00743999973331        3.48957999983505        1.93673000033669
H            0.81523000003549        4.15842000005316       -2.17426000020913
H           -2.73344000010868        6.31923000026977        0.63877000010452
H           -1.67808999996646        6.21315000011529        2.08255000031028
H           -0.36083999986503        6.75450000026588       -0.31379000045620
Fe           0.00102000035702       -0.00218999987530       -0.15748999946597
C           -2.40538999983506       -2.98142000022628        1.03956999918969
C           -3.59911000000754       -3.39464999980623        0.48300000047225
O           -4.18118999969886       -2.83107000042906       -0.67487000047461
C           -3.48369000025767       -1.72890999943784       -1.28388000014146
C           -2.27312000021664       -1.25512000051573       -0.79502999996968
C           -1.69501000010052       -1.89595000038622        0.42320999983771
O           -0.52206000008564       -1.35821999986866        0.77585999976459
O           -1.50635999970904       -0.26160000010011       -1.28527000040347
C           -4.53245999990776       -4.53249999950419        0.97102999898814
O           -5.89622000005584       -4.34375000013238        0.45021999955365
H           -2.02685999996061       -3.48116999985983        1.93906000012623
H           -4.00894000011905       -1.37354000003617       -2.17729999988315
H           -4.11801999983529       -5.52190999996531        0.64374000008031
H           -4.55351999992428       -4.55100000007742        2.08452999923258
H           -5.67582999989824       -3.68323000029034       -0.31461999996166
C            3.78534000008238       -0.58845000001910        1.04108000007286
C            4.74231999974503       -1.41296999968553        0.48445000021021
O            4.54707999997015       -2.19990999977168       -0.67295000000234
C            3.24354999976611       -2.15086999984858       -1.28170000078437
C            2.22581999999759       -1.34198000011170       -0.79293999938623
C            2.48974000002827       -0.51989999984112        0.42506000007300
O            1.43563999988893        0.22424999977776        0.77761999973896
O            0.98154999990893       -1.17806999999266       -1.28307000015674
C            6.19564000053843       -1.64698999996920        0.97156999858929
O            6.71996000020695       -2.91858000005414        0.44743999901440
H            4.02753999998848       -0.00953999934474        1.94014999968696
H            3.20008000013741       -2.78380000007138       -2.17495000041381
H            6.84116999992728       -0.78948999999296        0.64635999962506
H            6.22247000005032       -1.65859999996291        2.08506999996141
H            6.03702000023509       -3.06037000000300       -0.31633000018792
O            0.85957034253259        1.49387597735073        5.55507842093993
H            1.18947465202312        0.85323436379877        4.89361449664171
H           -0.08008829193918        1.26032495766997        5.61964081934634
O           -1.75441303326190        0.33965748824778        5.42244465731600
H           -1.97440917970633        0.19008681199710        4.48411915142916
H           -1.39986728540358       -0.52252999795604        5.70344751734939
O            2.09815077463512        3.00968793875976        1.57071215610538
H            1.84816746122768        2.12858945875834        1.25410970286182
H            2.27843550657411        2.91693915180049        2.52758263227199
O            0.74392265703188       -2.95824181999072        2.80318077803670
H            0.31463516782817       -2.43635594591851        2.09360484283404
H            1.50327809162047       -3.37849140504304        2.36217267810797
O           -2.96953085506954        2.92193672432853        4.46466832217711
H           -2.49861047764514        2.13042472813471        4.78868775443510
H           -3.56802499989487        2.57671592069285        3.77418419952096
O            6.56550397617649        1.69319266687460        1.43449859736305
H            6.22451129476177        2.01794895635143        2.28837655989239
H            5.86147760423135        1.11567848016436        1.09908612923158
O           -2.43989881701127       -0.20702113679344        2.75828092185286
H           -1.89293154290275        0.17659066053555        2.05812175256005
H           -3.25565817373526       -0.49747978139864        2.31194041274122
O            0.90410531465462        5.57195261047046        2.42222041198193
H            1.23614881628758        4.72650989231356        2.07327561205672
H            0.43128639774092        5.99378445808056        1.68387657432942
O            7.47451631444668       -4.54605966411990        2.58092041976569
H            7.22785036584381       -4.02413210988975        1.79232000827864
H            6.60808192489188       -4.79615257221551        2.93559757115056
O           -5.04359374752913       -1.03228881594099        1.58332085788470
H           -5.67727958279400       -1.63847813213674        1.99563286444040
H           -4.74362120261931       -1.51729745066897        0.79539869392247
O            2.51648324070013        5.99859167550215       -0.96580357904161
H            1.61595966115305        5.64186713335701       -0.85084754822670
H            3.01225890966730        5.72269782128137       -0.17127939323921
O            3.00858440940344       -4.08946264140887        1.14145129672897
H            3.57159807087173       -3.47476319823278        0.63611068890627
H            2.19440690581885       -4.13384090688884        0.60413636277683
O           -2.84188338487670        4.60164870811757       -2.17238746394675
H           -2.97405324163634        3.65473389901878       -1.97845678071665
H           -2.02492512936734        4.80791066702614       -1.68301894648851
O            9.35944833316255       -1.96117355146955        0.09016488739727
H            9.24927064597187       -1.22337962019795        0.72135142123652
H            8.46478218584563       -2.34920384098841        0.08732800938391
O           -5.14358020583318       -6.20272349303672       -1.81695685990951
H           -4.33421632265251       -5.72193698981679       -2.07813592145103
H           -5.46841463261233       -5.70293513311330       -1.04668223941456
O           -1.67524866086202        9.73071689311440       -0.76304956082680
H           -1.44734803033037        8.87381203940081       -0.35714381944721
H           -1.03847660855385       10.35600666602585       -0.38516158824281
O            5.43655584769907       -2.23571516135393       -3.43464954561875
H            6.36401484790990       -2.52011788725614       -3.39775385717150
H            5.15751416794484       -2.16606756922840       -2.50214140161414
O           -3.13643292577653        1.79247305204090       -1.34375231983733
H           -3.07806016948421        1.08874537923575       -2.00827241613056
H           -2.42781181396821        1.54801242689100       -0.72450662743992
O            5.29518783953001        6.67871086683656       -4.59232150962512
H            5.04531836521365        5.96880299665933       -3.97418577747838
H            4.74174872192020        7.44302796875307       -4.33767027625396
O            0.47684471052661       -3.80333485436044       -0.32134634938491
H            0.60967027973580       -2.85427133052546       -0.51686467463831
H           -0.38033751664487       -3.81710971902355        0.12618056660385
O           -3.16731356685243        6.56969761587994       -4.31782509959788
H           -3.01247874563037        5.90938157343395       -3.61718181427500
H           -3.24478475134763        7.42261618221748       -3.84708069568961
O            5.81388684524449        0.14761998793052       -5.06050319618609
H            5.23705401731253        0.87825380677727       -4.77777016274379
H            5.62086658086087       -0.60226816702846       -4.46636856543938
O           -2.72302160719269       -4.62289315866354       -2.54712437048964
H           -3.10014365467778       -3.95262584117652       -1.94688991786753
H           -1.81187727014349       -4.33941523291757       -2.72770717082529
O            1.16357688199915        2.03349309720438       -3.90668261125795
H            0.98406372708948        1.68863813717374       -3.01735804041446
H            0.51777827550143        2.74943369722795       -4.01015688923269
O            2.38523812630489       -1.67832967070034       -6.89722300314948
H            3.23750371104578       -1.31005400307967       -7.20034755284548
H            1.84459370932525       -0.88318473894854       -6.75881605820527
O           -1.41839370764981       -1.53829695220408       -3.85339547870131
H           -0.85781890784121       -2.31881330591502       -3.71613986302699
H           -1.37260251467802       -1.06676098611947       -3.00160743814913
O            1.23550790699859        0.91776324212368       -6.53145848927344
H            1.99343270295560        1.39323166130131       -6.91975205844609
H            1.19340417176741        1.25821382548292       -5.61746865021945
O            3.11944960825990        1.53028007781139        7.35714213360850
H            3.44216178527371        0.69541232384919        6.97909411222020
H            2.28566958705364        1.63991197636358        6.86433705747082
O           -4.13158678460927        0.26692818440039        7.05929936249991
H           -3.30655839847156        0.31055606574103        6.54009794731149
H           -4.54120493752624        1.13824735333027        6.90318292916446
O            2.70986852563764        3.32366320910617        4.36192304353405
H            2.05260850796495        2.74188836567160        4.78357781990111
H            2.82887032634139        4.05822721918553        4.99176242999379
O            1.74274817326500       -0.37991168539259        3.57792124746932
H            1.65037755475111       -0.06712369629972        2.66511742635773
H            1.42618127711778       -1.29700727710521        3.50157664150807
O           -5.16468711488684        2.95193775673474        6.47875856102735
H           -4.38503051620291        3.11859225080960        5.91637218575270
H           -5.89478994147760        2.90489164542704        5.83471415242967
O            5.46077743585657        2.54240909765796        3.90000336816958
H            5.73199943685823        2.59714234797685        4.83295809718827
H            4.52070657861908        2.79790895891792        3.93699992323941
O           -1.54438576594072       -2.34679225319252        4.50252050324424
H           -0.75151625405143       -2.68207730575072        4.04991235462511
H           -1.91729849694110       -1.72367047376231        3.84973697334161
O           -0.88648713166352        5.04823418037263        4.78095248219488
H           -0.36990601023165        5.11785372404340        3.95484739921904
H           -1.56226801102418        4.36264131954839        4.63054368341245
O            8.46210642196823       -2.11592536178071        3.98311426710768
H            8.56888783121994       -1.38709141864473        3.34156033845313
H            8.21554796098132       -2.90514317732477        3.46158478948085
O           -4.92860554365353        1.69587631750343        2.55215672526759
H           -4.94816885631535        0.76155092871555        2.27721983859169
H           -5.02414195217775        2.17256923636699        1.70807303419900
O            4.06858094878778        5.13698126441045        1.33252963073590
H            3.45518151863395        4.39214025196451        1.48476853452168
H            4.15462018770519        5.58838731986749        2.19084520376397
O            4.69698663973483       -4.89566182597295        3.37201633341369
H            4.15963690675119       -5.54572167822790        3.84920651923096
H            4.14373591938266       -4.61994451184645        2.61728432287338
O           -5.52210150634914        5.73721978480287       -1.86697247710276
H           -4.61079061910707        5.39940557063053       -1.94298885188131
H           -6.07580955636066        4.96084780798212       -2.07057177365070
O            8.90694862310966        0.08413291804043        2.08369435640965
H            9.70601256478445        0.63229231704809        1.98009462802814
H            8.15886075929964        0.67743985980496        1.89141494299058
O           -4.74166112766854       -8.73715827429042       -3.28247401630400
H           -3.89196883431375       -8.61104111294630       -3.74695798674017
H           -4.88529200825431       -7.91020821746484       -2.78465102958824
O            1.08276223860503        9.30192899644258        1.27783879367621
H            0.41034597989269        8.64701430720981        0.99995836770922
H            1.32913465244827        9.00255978489273        2.17169156913922
O           10.23049984102370       -4.36087906575827        1.63973934950229
H           10.02472659192267       -3.61786543044665        1.04609572274152
H            9.36414545101101       -4.58564618661819        2.02393431394190
O           -5.38333224272150        2.96278833545130        0.02035680123964
H           -4.58927375166758        2.58303932099666       -0.40027251828947
H           -5.99536365401103        3.06552858988765       -0.73163071635423
O            4.51807372609401        4.63943403229766       -2.67229042640192
H            5.14396463231592        4.38290321573787       -1.97133353021437
H            3.80185142460013        5.08190302905645       -2.17828088382668
O            0.22287656250442       -3.96701106698029       -3.21951008718015
H            1.06359382932614       -3.70658404770490       -3.64294658253831
H            0.38421817322168       -3.87106485629897       -2.26238459954984
O           -3.41938363592874        9.24190262796169       -3.00666971477712
H           -2.81864435778147        9.41564204362247       -2.25917901042473
H           -4.28783751682765        9.08956057293579       -2.59107818614973
O            9.63020463180574       -1.41153546284042       -2.78782462033940
H           10.58968107580598       -1.48277295409553       -2.92631238397023
H            9.50304934713903       -1.58302633908167       -1.83581775925910
O           -7.38365498612131       -5.66629314793097       -3.67032351419843
H           -6.68574827195207       -5.87219626278641       -3.02012347405951
H           -6.94761899204925       -5.06263290819533       -4.30131063215855
O            3.74974587777440        9.10668072763082       -3.84899251549229
H            2.95406742466129        9.31628570165913       -4.36267472963066
H            3.43846048465677        9.05903631570059       -2.92755618387317
O            2.83425067620695       -3.36087877585691       -4.56398189987287
H            2.65497693993617       -2.77116852257613       -5.32154944741426
H            3.67758609660403       -3.03159939029329       -4.20191377394173
O           -5.89181518780483        2.56944538732904       -4.85344603178420
H           -5.39265589038324        1.88949621299429       -5.34103048156939
H           -5.61978253390465        3.40865219228975       -5.27112447764103
O            8.34522436368532        9.95722448319824       -7.11789814240785
H            8.22731547584420        9.13472637036740       -6.60527616548749
H            7.73253795129853       10.58024340087823       -6.69785385875647
O           -3.67010920681974       -5.81900613889782       -5.02128268173176
H           -3.21007538257550       -6.67768752650362       -5.00717346315772
H           -3.35090255202230       -5.36628421456819       -4.21644541568990
O           -2.80911596420361        7.96829341536819       -6.87156397030769
H           -2.86262620545837        7.43787218469495       -6.05312803176481
H           -2.87458311748722        8.88363719149752       -6.54578702033541
O            4.88381886554756       -0.38722763584398       -7.73038690237136
H            4.50572166404099        0.50367823268233       -7.80746406227968
H            5.34666151809251       -0.33476292177311       -6.87488869661149
O           -4.28505003862826       -1.76255188085201       -4.73652271059493
H           -3.35732969235273       -1.74008763457065       -4.43148752701353
H           -4.38716642434332       -0.95313309079656       -5.27115948189217
O            4.00535147120472        2.39463266547870       -4.44062234770114
H            4.24689903711481        3.13939797106413       -3.86849679784834
H            3.07337307882344        2.22063481376317       -4.20891995144737
O            2.44424398207011       -4.26131926997835       -8.19914637376476
H            2.30424960936067       -3.38193823456416       -7.79896271295131
H            2.28801812855863       -4.88027144846622       -7.46712459102462
O           -1.55390736801177        0.08874117185406       -6.25386206867217
H           -0.64014588547418        0.37756770868030       -6.42514717809207
H           -1.48553558686544       -0.46788694832189       -5.45417158160135
O            3.48989068472426        3.94748628262052        8.82939411185836
H            3.32273584709838        3.77608911182012        9.76843023979742
H            3.33776002395568        3.09295181593096        8.38283969402396
O           -5.39782149358891       -0.24659077861187        9.59953270147238
H           -4.94239847494148       -0.12780484891142        8.74302023753377
H           -5.34887535272558       -1.19807858238430        9.78272714821299
O            3.10794107168442        5.44524374769505        6.35836295603973
H            3.24425547849928        5.01029482628288        7.21960490239505
H            2.27080835344146        5.94049671873683        6.44479151021837
O            3.68769725164878       -0.73428729594248        5.82861020122218
H            4.37898974034936       -1.36522441759369        5.56293461069794
H            3.09612088887296       -0.65537915771062        5.05490676475207
O           -6.12201088302419        2.65723052107017        9.30342819333348
H           -5.81856656534997        2.81570678254631        8.38682008291712
H           -5.91404281521493        1.71749593960458        9.47507920494788
O            5.76962854880365        2.81136006405823        6.79506942594265
H            5.72049036728482        3.63979947732283        7.29642322546146
H            4.92996394314149        2.34898313200678        6.98301155718121
O           -3.56107578570013       -2.68277070684811        6.66173504778742
H           -3.81026465252683       -1.75011267837185        6.81714328268894
H           -2.89690492489844       -2.65093293158234        5.94521607204098
O            0.53923802800854        6.87691971531105        6.44294610828813
H            0.01008219149832        6.24476616764871        5.91912155599785
H           -0.08207872191887        7.24991290056509        7.08548512476533
O           11.04889123559013       -2.19891104089506        5.30473569672756
H           11.00176510598336       -1.54797546799648        6.02179609739425
H           10.16164023311482       -2.18981148773812        4.89739383583301
O           -7.03073956574453        2.58410155634557        4.28311125126796
H           -6.32675181039380        2.20624085738145        3.71820431774033
H           -7.77728900560670        1.97015349295582        4.21446395347001
O            4.19490102352218        6.54528060896003        3.89207169849794
H            3.98913505100138        6.11516517210845        4.74244836500827
H            3.44925132725357        7.16449766093218        3.78328817308047
O            5.68536934203524       -2.60613312595983        5.00912334009934
H            6.59408711439081       -2.42010093976890        4.72471015962275
H            5.38325126604875       -3.36077208049905        4.46709357045119
O           -6.81954366307929        7.00656856147378        0.46337404467336
H           -6.39899236421513        6.56283682619629       -0.30016684751408
H           -6.86115125164991        6.29570042996585        1.12718784854577
O           11.44190084764858        1.43585315077789        1.55314775540331
H           11.79887793565388        0.57616273050511        1.25602828501875
H           11.83409756357988        2.09753316431258        0.96309623132553
O           -7.06710987675301       -9.96249083273041       -4.45413710897252
H           -7.32751327702900      -10.62387495964095       -3.79266960052838
H           -6.26571617350195       -9.54304363676054       -4.08744628544468
O            1.60419830937918        7.95921311367105        3.86738405858411
H            1.36090395357335        7.15909315521641        3.35805244830195
H            1.27861054298857        7.75484110449869        4.76338187125894
O           12.51903092505963       -3.09599256980101        2.91922541971513
H           12.12597479674114       -2.79423949606018        3.76010553984950
H           11.81266386033906       -3.63499276859573        2.51169362888630
O           -6.76656284947805        4.63519188681818        2.09062045951024
H           -6.30149240435369        4.09800468433056        1.41812385315098
H           -6.87718372577419        4.04591663196167        2.85862381891457
O            6.12552236140631        3.99565022393091       -0.35592127436524
H            6.38289816975139        3.21516824519813        0.16757814478181
H            5.48282825444740        4.45031809126076        0.22365691635785
O            0.15871256936626       -6.82227896835504       -3.78493516794640
H            0.51600929050302       -7.21462453557193       -2.97318998958572
H            0.08925335498642       -5.86826279900706       -3.59219500117982
O           -5.93688533261367        8.62039333912437       -1.75057147151650
H           -5.80917840549788        7.66183306128961       -1.88788824015451
H           -6.38153783081462        8.66779424087065       -0.88772052476904
O           12.23545366021220       -1.22873558287399        0.66791669743499
H           12.45048340244348       -1.82659915485389        1.40130902680114
H           11.34666174449629       -1.51403182404462        0.37786738624802
O           -8.51651817948150       -7.60924806182184       -5.50387281415625
H           -8.21166185963684       -6.95216668473383       -4.84676967179056
H           -8.07156959127910       -8.43353610272819       -5.22831691521545
O            2.67410152741432        8.87994957899495       -1.18210977531839
H            2.66334675707110        7.90400354692652       -1.13803315873992
H            2.19018019050467        9.14418554720596       -0.37929137708813
O            2.19222713436896       -5.95484764168989       -5.78618248021073
H            1.51022484937226       -6.32987459714238       -5.20730589782815
H            2.45985169893534       -5.12795065996716       -5.33722693539461
O           -7.03683151998607        3.27089160141390       -2.35731855635517
H           -6.63855062369537        2.99833607107732       -3.20388769054182
H           -7.96699388917618        3.00949288494365       -2.42839679938188
O            7.83883361627151        7.62353158586843       -5.43176645142085
H            8.49301257722319        6.97867551846918       -5.12482166773708
H            6.97891191634791        7.23586360442544       -5.18333881680455
O           -2.16117250644016       -8.30787377274733       -4.72553170744991
H           -1.36926561485863       -7.83136144047621       -4.40984516024292
H           -1.86310311173611       -8.81412054620889       -5.49619608122048
O           -3.08256490841270       10.54554561595554       -5.54391244249890
H           -3.19011347721834       10.11524787729902       -4.67376776326612
H           -3.24887787493201       11.48734048499587       -5.38186150815319
O            8.76879605933439        0.16461315094871       -5.17736107472055
H            9.02968135641816       -0.36041023733909       -4.38634841720178
H            7.79057861228425        0.17504615204375       -5.16003889133888
O           -7.81024121945262       -5.39543563862793       -7.41843997080091
H           -7.16691318492629       -4.90968123763598       -6.86529040322213
H           -8.09006642784195       -6.14870146611198       -6.86266027524340
O            6.29378787005692       10.17780244816324       -4.90520547395852
H            6.80726358869080        9.35279380490153       -5.00303414198262
H            5.43936840006864        9.88755421164918       -4.53376401141450
O            3.89378592636967       -7.80210885538851       -7.39584293338984
H            3.32983127801960       -7.23211132598133       -6.83551297600039
H            4.15173555855301       -7.23309880231690       -8.14063804073392
O           -5.01910825530824        5.03931753170115       -6.05382016983978
H           -4.42805582583701        5.53962011782699       -5.45862176230006
H           -4.85398270464165        5.40997876589286       -6.93532758383618
O           10.06972526063300       10.05658424613386       -9.44221783647098
H           10.11117823379372        9.11871327920171       -9.69862328847548
H            9.49103441872684       10.07341428326094       -8.65380511007994
O           -5.85559832208948       -4.05723454624108       -5.59547941988960
H           -5.12746739026106       -4.70253171419387       -5.50402617294947
H           -5.43050653143167       -3.22132916151661       -5.33141803189082
O           -4.30141151618770        6.29181920037090       -8.65054416610112
H           -3.68711566714644        6.00527192859776       -9.34498158491079
H           -3.79139164440254        6.91767722788845       -8.10079503370885
O            5.01286235449597       -2.96975296514747       -9.17345505334634
H            5.05167703056392       -2.09362767828912       -8.74554845016002
H            4.16075120403601       -3.34594918424650       -8.87609038865698
O           -4.33670555120459        0.66302908713559       -6.43445132411207
H           -3.36860615072116        0.54451505761730       -6.40328342454075
H           -4.57031069890322        0.57617504899431       -7.37154924713605
O            3.73505696152871        2.29998200232227       -7.35223349940210
H            4.01398639119218        3.14485087154360       -7.73190030152043
H            3.89576791712555        2.38365764512800       -6.39317151252089
O            4.51359280899826       -5.82768076379977       -9.56351297482095
H            3.74695856697079       -5.35350845686048       -9.18601963745104
H            5.16024392641378       -5.12009375619287       -9.72624782539451
