%chk=kojate_solvated_2_optimized_Reduced_Structure.chk
#p B3LYP empiricaldispersion=gd3 scrf=(cpcm,solvent=water) scf=(maxcycles=500,xqc,maxconventional=1000) 6-31+G(2df,p)

Reduced_Structure

-1 1
C            1.62597373126393       -0.60766935793472       -0.59169543998049
C            2.26430875042768       -1.56741503009974        0.13269243331057
O            1.71407139499876       -2.16292447936158        1.19027260137917
C            0.45365786897784       -1.78787980277494        1.57820082228143
C           -0.29935050550903       -0.82043351046162        0.94507954279461
C            0.31019723451120       -0.17742578614983       -0.24359285452180
O           -0.33463698095202        0.68940936509172       -0.87861893703352
O           -1.46348891295113       -0.45414279334811        1.31251873970879
C            3.65322555402478       -2.07691470372704       -0.17168928218883
O            4.39988316388937       -1.20979800628488       -0.99373457787827
H            2.12042607636049       -0.17464776297018       -1.44659765502602
H            0.12392745247366       -2.34102847881835        2.44221601377758
H            4.17328995238865       -2.27234656461832        0.77486514401695
H            3.58056462932006       -3.02019096397627       -0.72270636118534
H            4.55127667706141       -0.37995008638338       -0.52081670801814
Fe          -2.16840412668591        1.05960194799920       -0.07159239906723
C           -3.76315994780598        2.53729205641352       -3.64631991300490
C           -4.33560183450947        1.88274293020097       -4.69342952800519
O           -4.47982826569368        0.55902851886011       -4.72534961610488
C           -4.04265703246527       -0.17956941547235       -3.65454578860391
C           -3.44775433366710        0.35446804594817       -2.53029594780487
C           -3.27947956780667        1.82660489216864       -2.50735872090330
O           -2.74121989902898        2.37343819053619       -1.51696706247611
O           -3.04602523685049       -0.32553587944000       -1.52887352705099
C           -4.87554250446442        2.56725898005960       -5.92699904640870
O           -4.41341129906489        3.89102171770063       -6.07095972077035
H           -3.68422468842090        3.61204589434998       -3.67592290989694
H           -4.22722699046651       -1.23203684653010       -3.79871930842829
H           -4.61854345142823        1.96446599157419       -6.80682983685659
H           -5.96720545960672        2.62494383323441       -5.85723315602089
H           -3.46524985103748        3.86293234141225       -6.25893448734696
C           -2.09278924768986        4.00881573922724        2.87155375335677
C           -3.07280104366411        4.46405815730273        3.69462000771470
O           -4.31517042421666        3.96960587729967        3.69138676334094
C           -4.62133879774307        2.96972677348459        2.80204205955174
C           -3.72895263821551        2.44055718687124        1.90304862957436
C           -2.34674992434682        2.96319018325373        1.93004181740629
O           -1.48243126471778        2.48795706396764        1.15848417304834
O           -4.01177010277258        1.52239575418115        1.04741272966292
C           -2.88939331473708        5.57063512411178        4.70708786935997
O           -1.73018453381124        6.34009392236569        4.49138017970464
H           -1.10681989791255        4.43966442626038        2.93290006845933
H           -5.65081136683560        2.65908577228221        2.88233760752872
H           -3.78961784843429        6.19811167707295        4.70506428407831
H           -2.78051678573170        5.13623354871445        5.70592944898852
H           -1.82694278045403        6.82683149180917        3.66094188232309
O            2.64103819309947        1.96031781940993        5.18791180337205
H            2.07929655969642        2.58370071497241        5.65837894371597
H            2.23296593069865        1.80765329675373        4.33041201767528
O           -1.94150585153477        0.27109178611502        7.07117778940751
H           -2.48335830992104       -0.47014582310946        7.35915337826209
H           -1.92062286071821        0.24790115505160        6.10915609434165
O            0.35825442926093        6.81654067455267        6.46238182353968
H           -0.33369792623215        6.59064166711532        5.82442634770823
H            0.74405729962192        7.64290843072100        6.15470155965135
O            2.23167453120292       -2.86390193560026        7.42120242542767
H            1.52533784191971       -2.98173284176054        6.77815081659034
H            2.33850385171983       -1.91653271783209        7.55319355136143
O           -6.93895185883836        3.06097601182864        7.99195217672427
H           -6.08655395702041        2.63108594873763        7.86986776554400
H           -7.09476763081982        3.60739639822546        7.21527370437687
O            5.96357286238383        6.21733439121604        5.17926882022991
H            5.15462698066957        5.91093287490679        4.75680609800109
H            5.78005276133291        6.22503069971443        6.13183263929581
O           -4.54829208382732       -3.41813677629605        4.37609351650993
H           -3.86482790534488       -4.01970366321714        4.06556358318375
H           -4.56414945742250       -2.67536822488725        3.76416184552745
O           -5.69661523786728        7.45375664005402        4.22193839297007
H           -5.97847810726467        7.76895518723225        3.35738642402569
H           -6.43042021670254        7.60724617590132        4.82505747265960
O            5.07502202564579       -2.29324888569990        2.96371429205948
H            5.00239403841254       -3.04803838939560        3.55585993764777
H            5.38046164439934       -1.55248404730260        3.49728349392890
O           -6.47398331134103        0.65180302934075        1.07958708354859
H           -5.52483414798830        0.98521312307149        1.07249145972027
H           -6.46474477179779       -0.07607120267322        0.45313745556602
O            1.74852964910641        9.71911192260183        1.74264119018963
H            2.08422154477914       10.02138472591820        0.89335773016315
H            1.95535484261389        8.78141081584580        1.80610948369576
O           -0.23471699912868       -7.15811972014623        1.60833137996540
H            0.51732507116776       -6.81405473735668        1.11603966998968
H           -1.00570934756615       -6.65216776970222        1.33316463651953
O           -7.05053214951450        6.24116121664021       -1.08492171262775
H           -6.75485869158266        5.37751731185861       -0.78120068696239
H           -7.19354302959341        6.17046402666594       -2.03386824556735
O            3.56500186168816        4.61025467504374        0.44222837543322
H            3.88121749663669        4.78652286645950       -0.44899171275886
H            2.71628091256152        4.16468392467186        0.35510534606866
O           -5.24340936108217       -5.30337292987554       -0.30911223174378
H           -5.03066341830367       -4.37999715201425       -0.47926163220983
H           -6.07630485686131       -5.31636031939993        0.17174326593945
O           -1.50197280157346        7.39804642207046       -1.11770796863260
H           -2.40691366192465        7.08854037664508       -1.01715896456945
H           -0.95057809824203        6.61378589746148       -1.20545491123108
O            5.65290594540390       -2.67888461199893       -3.16334904975488
H            6.46471772989655       -2.96349122884412       -2.73185636879491
H            5.21181424713293       -2.08143159707453       -2.54172715000112
O           -8.33438802086524        2.51651101941596       -5.45736124167238
H           -8.77922085284271        2.67251735263140       -4.61860884504332
H           -8.93152177333856        2.82407480891029       -6.14691093424246
O            2.79225444628894        9.05304388096563       -3.75716963594018
H            3.39044240521577        8.32993034667404       -3.54434626143478
H            2.01290890193848        8.66142930043203       -4.16438682354799
O           -0.74607353923757       -5.09671745036040       -3.17060401347666
H           -0.97130560603018       -4.30780127732148       -2.66757365563167
H           -1.57503228866999       -5.48683966948150       -3.46487049317164
O           -5.66678347152107        6.47693326045878       -6.47419224919957
H           -5.37372867916524        5.55909730783190       -6.37416751351349
H           -5.00123560874112        7.01630526719644       -6.03609217302699
O            1.85760957731253        3.97155601823604       -4.54608121850709
H            2.07409659184975        3.36681152771555       -5.26147941809466
H            1.16265874288170        3.55527819554524       -4.02595216548584
O           -7.93491291046257       -2.28541639586079       -8.11445044068650
H           -7.30393235567650       -2.98237804101098       -7.90839852770980
H           -7.60032897974821       -1.47488028815763       -7.71722419522927
O           -0.67514439091163        7.47531685811916       -7.89270049583168
H           -0.17062798548557        6.65751720825654       -7.94675711636406
H           -1.15818730077634        7.56152090012238       -8.72017889027503
O            1.14703561000347       -1.23500315038756       -6.16013741923411
H            1.67251425836878       -1.90156985712868       -5.70683041709427
H            0.44812942510918       -0.97037989997320       -5.55361223936676
O           -3.35936095622154        0.97379761277679       -8.53637284468987
H           -2.41599846192947        0.88241400712071       -8.70335438817974
H           -3.79706998220555        0.67265911461077       -9.34964291218560
O            1.67874022865161        2.45433500699768       10.52831337259317
H            1.77777764236991        1.54432556364936       10.82468512243749
H            0.81831990177335        2.52031640029005       10.10216949799580
O           -6.10175946774447       -2.66145018831035        9.49553311680659
H           -6.64501241698268       -1.95893442852408        9.86634994973114
H           -6.44542911665635       -2.84558825501085        8.61530569571165
O            1.31918008858051        8.01909026982531       11.43509276561648
H            1.11898687472723        7.13209728389094       11.11916831646463
H            1.00194564808197        8.63333914472630       10.76523137747271
O            2.70686778517791       -4.64670526641313        9.58016621233035
H            3.60411822031764       -4.95882058262706        9.42908632537189
H            2.51243003582411       -4.03515597888693        8.84990777020685
O           -9.13425270166159        1.96518170335991        9.43593268163175
H           -8.36753270764502        2.29357760527108        8.93741802747947
H           -9.40390627710266        2.68815674642984       10.00992734189397
O            5.11208301330940        6.21197646464712        7.91289829862624
H            4.82545608342712        7.03130289741234        8.32849952959223
H            4.61156622455992        5.49876209097173        8.32264171440216
O           -2.29803914523681       -6.53003612318849        7.84630435072462
H           -1.54397001452590       -6.23674620119172        8.36766393657640
H           -3.06791936587458       -6.05260492845897        8.17168556861875
O           -3.52604498667786       10.70313496022722        7.63134844452595
H           -3.20295970326291        9.80105009331285        7.53869421319667
H           -3.69163972974452       11.03303596560771        6.74241903069100
O            7.84397103364093        1.38635728384858        6.32311798372052
H            8.21793143600224        2.10085920351201        5.79773351059253
H            7.05394117267259        1.73605404881598        6.74741357149927
O           -9.52244599469884       -1.62820396941086        5.22218495745031
H           -8.90319563780756       -1.18442837867657        4.63380997555410
H           -9.79730702382532       -0.98321664202268        5.88146983575265
O            3.88009782693158       11.23271937773484        6.21881517989863
H            4.39614052445245       10.73801420154774        5.57396955667024
H            3.16635114969218       11.66191761590698        5.73687236633224
O            3.83841494788224       -7.47909581807918        4.67858702636971
H            3.51905549849924       -8.32538747100507        4.35081344930201
H            3.09078019347000       -7.04263269381063        5.09912052210749
O          -10.63104960643294        6.76099162497621        2.80980918510492
H          -10.25700103694330        6.00442350020802        2.34707602928509
H          -11.35462171957949        7.09081576025522        2.26810667699726
O            9.02136344507773        4.17198956987420        1.50264797556794
H            9.27778043317880        4.84358663053585        2.14181961904542
H            8.06220332025572        4.09986115983699        1.54262119164657
O           -8.22048352329389       -7.03061495205358        4.04977295364192
H           -7.39161084107211       -7.13728253284369        4.52739074495610
H           -8.49201929243643       -6.11386221183738        4.16166099445115
O           -3.43573498483627       11.66151979181439        2.05152261225938
H           -2.87734287122653       10.94559367760188        1.73162773820906
H           -3.05046567814040       12.48146869025071        1.72786743160676
O            7.13767944261843       -6.80798746023233        0.59820906208243
H            7.43820563597659       -7.10234646246976        1.46359989635557
H            6.23195198349306       -6.50114980450860        0.70741756878122
O          -11.39926247890304        2.07659556313178       -0.66462386641673
H          -10.59540860200063        2.01540399691675       -0.13876191018503
H          -11.58138100592085        1.19282067243681       -0.99858196247929
O            6.69212069457284        9.07629616920256        0.37857680547089
H            6.63223576668798        8.59590954168030        1.21062037988674
H            6.81257770623320        8.42192030407735       -0.31679913354070
O           -2.94522903814106       -9.92780988244496       -2.17654098032830
H           -2.00738283771053       -9.87180433578696       -1.96775953667557
H           -3.41833904297682       -9.49029435962981       -1.46150230629328
O           -9.78735489854009       10.94754200304940       -1.03292273419582
H           -9.34155293838196       10.23439999815041       -0.56457572900293
H           -9.14995632676426       11.66207133328539       -1.12911285466148
O            9.55713684923717        1.00021544277401       -2.56205596794524
H           10.24940945722204        1.22944115649402       -1.93482222319988
H            8.72146916166624        1.05244250348456       -2.08685923118006
O           -9.23135735824946       -2.57206414881545       -2.90120543685155
H           -8.90816136824851       -3.33510150880358       -3.39087823402936
H           -8.74196499113968       -1.80685441351055       -3.21946105614183
O           -0.52518253044383       12.84767231015282       -2.32794979206809
H           -0.74755881969356       11.91177201288387       -2.28946868255279
H            0.42371331031322       12.90291788080686       -2.47769449644929
O            4.18050000339030       -7.66937756019131       -4.00725617045374
H            5.03960484831342       -7.35489541493740       -3.70777502907324
H            3.56473034873068       -6.93523492263754       -3.91531277520438
O          -10.91342766852469        7.05440583116310       -4.99428208313470
H          -10.15413691981862        7.26310594603228       -5.54804777660382
H          -10.94935752286755        7.72306561117776       -4.30293676428830
O            7.03667398103828        5.36969593309547       -3.89908846842263
H            7.98065645640223        5.24574123122756       -4.03595934679678
H            6.59817710001721        4.58032108229698       -4.23234616374605
O           -5.88905100861068       -6.55146925884241       -5.33610749233230
H           -5.96045537306289       -7.06681993247733       -4.52676453832252
H           -5.27873674972840       -7.01911903230936       -5.91468871770244
O           -3.76522980735336       12.20141454853039       -6.91745452528623
H           -3.43423751625801       11.31283275578951       -7.08345663414033
H           -3.27227043228630       12.54965097196376       -6.16775494161818
O            6.29631126420486        0.86612487952120       -7.04130340169138
H            7.07273380673451        0.53133169200226       -6.58151668560647
H            5.54925742886820        0.33504136401222       -6.74804227957907
O           -9.21445895042828       -2.15465123086598      -10.64579609929745
H           -8.75865665476395       -2.20989592490534       -9.78841574103729
H          -10.14254688321258       -2.32528404179596      -10.46041163484452
O            4.54562910644010        7.46328475922070       -8.59458572943187
H            4.86121638469947        7.01949809029505       -7.80077325544377
H            4.14773742317646        8.29279222259890       -8.31196341348150
O           -2.41094094471845       -4.29617700820732       -8.54050149501666
H           -1.45145345990347       -4.29975948262175       -8.61134708572409
H           -2.63816016276884       -3.65985370088955       -7.85482493615271
O           -4.57920570963644        5.72463164126920      -11.49975365839280
H           -4.37915876349350        4.99652122169087      -10.90240419858913
H           -5.25555256929022        6.25873273470089      -11.07151020373960
O            1.83872262870277        2.71574775221821       -9.86564091484348
H            2.30082802032022        1.88240828598788       -9.73081454652229
H            2.50966586867050        3.40216698670813       -9.93784606197995
O           -4.50881784431248        0.04555630556567      -10.96890571789482
H           -4.52783980722575       -0.89392089180268      -11.17791100117669
H           -5.30084069646562        0.43534479341186      -11.35207832647782


