373
 energy: -653.153614416164 gnorm: 0.000988553667 xtb: 6.6.0 (conda-forge)
C            1.63701285885057       -0.62648916764685       -0.71471293719047
C            2.32595181306290       -1.52256543052032        0.04405923739812
O            1.79973196752397       -2.12203318044931        1.11095272251637
C            0.51003949562686       -1.82548944950096        1.46716068498562
C           -0.29795704622825       -0.93001373101924        0.79554172218364
C            0.29206915131308       -0.26903937055360       -0.39463846883355
O           -0.38785401373176        0.55032912804962       -1.05463368275444
O           -1.49352253940859       -0.64408548577446        1.13173617973252
C            3.75004853301932       -1.94661921106800       -0.22835173033016
O            4.45919319721666       -1.03296295294168       -1.03361610410786
H            2.11603326489631       -0.18285348283807       -1.57290072095173
H            0.20716578106291       -2.37235241924873        2.34518208707282
H            4.25881126412637       -2.11185624209413        0.72943959188642
H            3.74883964596673       -2.89279939675601       -0.77906976548829
H            4.56979323452480       -0.20359757320584       -0.54880821813054
Fe          -2.25592694125755        0.85079308663512       -0.26837964844441
C           -3.94351278138825        2.31377174972978       -3.82222901827411
C           -4.48525728876854        1.64951466140511       -4.87970107799058
O           -4.55359719872714        0.32146564256694       -4.93803926370798
C           -4.07527027465939       -0.41248979966577       -3.88327037182970
C           -3.50767873918189        0.13028590160563       -2.74844333035461
C           -3.40822605035030        1.60887262747442       -2.70256448508295
O           -2.87958913241388        2.16665656580739       -1.71375087172008
O           -3.07488794452853       -0.54834109042066       -1.75926225306619
C           -5.06746922917559        2.32851359827398       -6.09651528352039
O           -4.67727664760296        3.67741515639026       -6.21923838580658
H           -3.92948768792050        3.39173399464043       -3.82843785970639
H           -4.20433041862957       -1.47059410313766       -4.04559014623530
H           -4.78575862811187        1.75592124619385       -6.98896752061541
H           -6.15981459839421        2.32883221411280       -6.01799787854723
H           -3.72442036879715        3.70620152903626       -6.38334897919820
C           -2.29104150862445        3.81589567079423        2.67162283160731
C           -3.29701080383698        4.27144526298932        3.46228644040862
O           -4.53382134548308        3.76601373932940        3.42876481204504
C           -4.80402675262870        2.74849330433170        2.54939896812487
C           -3.88390273595861        2.21544218417748        1.68077653528043
C           -2.50987467147212        2.76009706548113        1.73170289866617
O           -1.62114812647998        2.29873371898374        0.98057003550760
O           -4.13770247644273        1.27795198184564        0.83721663630577
C           -3.15447722767998        5.39301624812792        4.46437481130353
O           -1.99783737889738        6.17302785483480        4.27333270081602
H           -1.31055314141549        4.25577563783659        2.75396550490008
H           -5.83140955732143        2.42740981484460        2.60733714040743
H           -4.06106905280377        6.01021249010777        4.42627562112679
H           -3.07155479248373        4.97266545065456        5.47138695319631
H           -2.06863188150015        6.63709808678370        3.42761163127558
O            2.69327473026389        2.10466152889133        4.92167980456330
H            2.09752039213194        2.60256986535035        5.48964321538172
H            2.20384137912707        1.88787670250500        4.12277895223138
O           -1.74765238016464        0.11176602282794        6.79099760291368
H           -2.06460882300142       -0.73300679375777        7.12488543116468
H           -1.75074012342867        0.05324426395845        5.83064833701425
O            0.03715701144993        6.73280710649829        6.28474407224703
H           -0.63185096011390        6.47238134043289        5.63600811619847
H            0.37706755111642        7.58399240635723        5.99080254981794
O            3.33912877248018       -2.12656975617311        7.79400207992368
H            2.54708577099040       -2.01566120661174        7.25875676813981
H            3.57451988714144       -1.25620559971300        8.13035961603985
O           -6.84867007522135        2.74579817286787        7.75596387186713
H           -6.26085011952475        2.14200183890200        7.29165619821276
H           -7.24780846740944        3.31892065635847        7.09380221628195
O            5.40888043534939        6.72008625574648        4.91519629927686
H            4.61305122267666        6.38110855376388        4.49370356353444
H            5.25680987934448        6.64954673574786        5.87038856081542
O           -4.72609361529022       -3.32985183013765        4.20766857625174
H           -3.87757863749055       -3.65330351910662        3.89040810040739
H           -4.92149523817040       -2.53382662339893        3.70340689016370
O           -5.97803245454192        7.22196599749577        3.89188560250966
H           -6.17146001215241        7.57013480879271        3.01605880366228
H           -6.82452099726526        7.08947838331249        4.32955594467214
O            5.11701436358859       -2.18676241819011        2.92246713316512
H            5.03181156022301       -2.97295246301988        3.47002172023478
H            5.36982259730791       -1.46711113490252        3.50951851331033
O           -6.64678772862989        0.55972586337149        0.67860792209369
H           -5.68262696694020        0.84114494288254        0.74096856933932
H           -6.62951801409482       -0.18294955050899        0.07006001570855
O            1.44262981141662        9.64011663195315        1.84074485306971
H            2.19351165917650       10.15541019546178        1.53119105267525
H            1.56474200630378        8.74336112964494        1.51451497207600
O           -0.34788353121085       -7.24906143238767        1.54808279753029
H            0.41585399285705       -6.84310817560888        1.12631788868885
H           -1.08884549899511       -6.64681224933145        1.43112717304124
O           -7.47690016388178        5.93598335844850       -1.16431742707985
H           -7.26072876261327        5.02148394788528       -0.95882886307686
H           -7.46044081158394        6.01771772728223       -2.12280518296498
O            3.31696750716352        4.69442623444414        0.13815279412859
H            3.75644019438409        4.59006633459162       -0.71118258827532
H            2.48427407780120        4.21472121428541        0.08532264795999
O           -5.24604300940371       -5.34584198397198       -0.30558075762876
H           -4.91075980994220       -4.47001526334118       -0.52313496048528
H           -6.14695136153244       -5.22922827491637        0.01033439053259
O           -1.91163425050458        7.18542872122769       -1.31913838117186
H           -2.80337176434185        6.86488044495318       -1.15529650410630
H           -1.35784083637848        6.40901100316072       -1.44675559452988
O            5.85806216357542       -2.15997310895311       -3.30151540849173
H            6.63064175172533       -2.51679410229668       -2.85259315816846
H            5.33980814462293       -1.70388047333161       -2.62242267360336
O           -8.45683938738970        2.11016613776821       -5.54010958020419
H           -8.88391318090533        2.41386294078403       -4.73309989748826
H           -9.07955437637629        2.26622864180832       -6.25733786443896
O            2.15473022549710        9.01556403756243       -3.77120773971499
H            2.51687118962772        8.23743742650931       -3.33687965267267
H            1.46384445846389        8.70685428809093       -4.36556685102799
O           -0.59767816660796       -5.28432427769514       -3.20496559877043
H           -0.85928576423218       -4.45814614203249       -2.78683020009649
H           -1.37054621462870       -5.85749293361176       -3.19720286355003
O           -6.28842290580309        6.09779036664154       -6.52691186364657
H           -5.84987808415527        5.24301881586970       -6.40677461901386
H           -5.59185768551626        6.72714701028705       -6.73829552089754
O            1.57061099443283        3.93273277054083       -4.79179887067561
H            1.78538130676931        3.34426985730185       -5.52096172592886
H            0.91912652824942        3.47998981888062       -4.24719661017191
O           -7.72120166013547       -2.69419077168080       -8.31032248913505
H           -6.88981394849157       -3.15637603294473       -8.16409044095399
H           -7.59506282345668       -1.78643976758901       -8.01727540398959
O           -1.06190915015055        7.22694945192478       -8.06309270896744
H           -0.43616346567796        6.50745532449066       -8.19135170653850
H           -1.41053241239238        7.45198547440428       -8.93088288906339
O            1.19945669635508       -1.31790952893060       -6.28208550981407
H            1.77574569190344       -1.93874259891468       -5.82566469929405
H            0.49014885322931       -1.09350433186155       -5.67172212739974
O           -3.53998129421922        0.74271873565995       -8.70379364595805
H           -2.60979487568360        0.50113998930203       -8.74273117693838
H           -3.91245969303981        0.48251649450464       -9.56229965902151
O            1.80003838828155        2.45262512158157       10.29200525301567
H            1.82784455196332        2.13384137719318       11.19912595243295
H            0.89814321171454        2.33217204972971        9.97886635250791
O           -5.78525770136948       -2.52127952449914        9.49743192650129
H           -6.45286827869754       -2.20049522695487       10.11152846083022
H           -6.13599933545900       -2.39367761801094        8.61034059742950
O            0.24455284460659        7.80598094511938       11.32916595897344
H            0.33732241739228        6.91369576979979       10.98106049122620
H           -0.21228775221250        8.32454260705767       10.65945266028209
O            3.91685700562346       -4.52787090907170        9.23857433489363
H            4.77750832276735       -4.78478776020586        8.89383833444171
H            3.67127899485194       -3.71801819562086        8.76289282334323
O           -8.37681202200132        2.01486521843136       10.08492737349515
H           -7.84917958344815        2.20358998941904        9.29203589464616
H           -8.36971031833327        2.84066091506381       10.59258810379486
O            4.74889990101404        6.46646502172300        7.69409831800953
H            4.56888989251677        7.19539740535363        8.29568051705824
H            4.40941052735216        5.66830191066514        8.11070953039224
O           -1.08454812373909       -5.32475931732939        7.39960605157459
H           -0.70717117090022       -5.16760895559023        8.27074556185620
H           -1.97289541506149       -5.66686966351422        7.53804196896497
O           -3.59213129676821        9.88641497654910        7.71541118854267
H           -3.91301258395777        8.99550611265877        7.88605075200139
H           -3.54267631614576        9.98601980182220        6.75975001682866
O            8.01091103453327        1.59554663423115        6.03974098061432
H            8.70626396732449        2.23630943400683        6.21675615248304
H            7.17633863958893        2.07431921902343        6.06023488853943
O           -9.46801603255856       -0.94351151363056        5.42096300099131
H           -9.04203346978668       -0.57557365982753        4.64048430894656
H           -9.98116060316367       -0.23508089286225        5.82188882236541
O            3.01557976131825       11.65893931958929        6.31566197069532
H            3.57130522222661       11.01792400543498        5.86124882035079
H            2.71868037673941       12.29164784132470        5.65463919148974
O            3.53979759859876       -7.26454826081534        4.79796914193859
H            3.20610961319437       -8.15026167734579        4.62658539448309
H            2.81057447175748       -6.75823663947383        5.16965715021245
O          -10.85161438570890        8.74576473028820        2.40087853457876
H          -10.55074302630172        8.17150851342051        1.68997516191375
H          -11.62900056192549        9.20874269019230        2.07514080629271
O            8.53128831501871        4.06218637413090        1.59873968234972
H            8.88002956568891        4.66684851045108        2.26073855274911
H            7.60501552663998        3.91595104857844        1.81425812114980
O           -8.90573711788624       -6.31805458097057        3.76943170554742
H           -8.03430319109107       -6.56812253174449        4.09181463504200
H           -9.00930270884677       -5.37801174172422        3.94668159158647
O           -3.88723989140495       11.40459834183115        1.15260434772857
H           -3.10183370660373       10.88672636223863        1.35384534142142
H           -3.65096344198351       12.32995087595229        1.26965511617918
O            6.46181252379560       -6.32014247488338        0.05562480011556
H            7.17405817146085       -5.77746085915812        0.40762180119514
H            5.95016138025240       -6.63404267698551        0.80749072576429
O          -11.89228049168016        0.99315606703106       -1.24802650003835
H          -11.11590941551069        0.58324588339174       -0.85425426086808
H          -12.14518330863170        0.45138254998426       -2.00209291875659
O            6.58461067490002        9.20054497893725        0.21902466203615
H            6.43328083683428        8.34054793773830        0.62455163128876
H            6.26334245193025        9.14490643283640       -0.68601096054956
O           -3.31085338134018      -10.15196981895065       -2.15462559535830
H           -2.52241788056721      -10.69600364434716       -2.24423368090627
H           -3.27541070260208       -9.74364443924831       -1.28394029080032
O           -8.56956149892890       11.40884515252104       -1.13473739521086
H           -7.92073558079671       10.69779406678357       -1.13653220691052
H           -8.08855868916311       12.22670169113819       -0.97491758893789
O            9.69268663955623        1.76891059972709       -2.89536484935021
H           10.39616249698849        1.75943935543407       -2.23949935999614
H            8.87503421639138        1.56447770536495       -2.43046983440175
O           -8.98109282344351       -3.05094156533880       -3.08805543315458
H           -8.84082676876932       -3.77621669246438       -3.70493808862390
H           -8.67532207594441       -2.25091450014575       -3.52609353599512
O           -0.15692847475506       13.39761465319107       -2.16855818044728
H           -0.04877648037842       12.54077010052193       -1.74360631443841
H            0.01382516323545       13.26815641158796       -3.10663660900882
O            4.47807936850424       -6.92260367942233       -4.78615941345824
H            5.34714676487712       -6.81754217969751       -4.38663595668969
H            3.86605210366511       -6.39084558814902       -4.26732693712460
O          -11.46730153551749        6.46421787491649       -4.78119133918594
H          -10.89300311628075        6.52695695938618       -5.55087025152696
H          -11.38096268002365        7.29328388053082       -4.29998826761895
O            6.68369202365446        6.12825611514361       -4.08348034318524
H            7.30809813375593        6.66219025572126       -4.58389323662788
H            6.78045312915490        5.22111145534498       -4.38875707141306
O           -5.53438824730680       -6.68326515780887       -5.52503776256529
H           -5.62772284005620       -7.01770146101182       -4.62793170991513
H           -5.42683404157771       -7.44659555266717       -6.10048504705306
O           -3.87285520797256       10.72196962165099       -4.56517839767481
H           -3.13776804134830       10.16242645027993       -4.83444649581894
H           -3.89923930139861       10.70762963977478       -3.60331442819507
O            6.05443946518747        1.47954424901949       -7.07099511093448
H            6.76873695584076        1.05001724804210       -6.59033898439999
H            5.33807233708518        0.84017238658608       -7.13291658740099
O           -9.36430010835631       -3.38151988368942      -10.47289904734906
H           -8.80537612509795       -3.11201169419065       -9.72264519579137
H           -9.72666429136255       -4.24143204299034      -10.23709210277616
O            4.33389429627926        6.75308120057403       -8.69342777682246
H            4.48291773814762        5.86192185689591       -8.36276653005769
H            4.17582317926499        7.31552021075181       -7.92867663415990
O           -2.31234568955445       -4.33300549193175       -8.85723477354739
H           -1.49837657562657       -3.98829722056786       -9.23709238552167
H           -2.28999762154427       -4.13957834160047       -7.91494453491738
O           -5.42741197311742        5.20899929697220      -11.46866172013751
H           -4.74528700773515        4.83480749087193      -10.90159870509827
H           -6.27290700296539        5.00821901035037      -11.05569951024953
O            1.43339734734323        2.64726045162337      -10.17586109133655
H            1.66764439472284        1.75805255301181       -9.89208414666093
H            1.99599004045641        2.85928736846408      -10.92679600360391
O           -4.50467562096255       -0.11612933168193      -11.23572891154329
H           -4.43934390174897       -1.03592742672446      -11.51105392891604
H           -5.24358069290431        0.27012389413754      -11.71555348209920
O            0.52066685877578        3.52688662766921       15.50509853172081
H            0.64424216090570        4.35745970558353       15.97504251247863
H           -0.30673183894601        3.60157533671404       15.01868931452426
O           -3.42180172895415        1.78716721098619       11.91548512330320
H           -3.54939945527337        1.46411584491283       11.01788357231082
H           -4.24030703073065        1.61695639438707       12.39148295608447
O            0.20372807266163        8.52279717473877       14.09132756789414
H            0.19747151725549        8.22750806108228       13.16583700846832
H            0.71905678103627        9.33489429733464       14.10582953975184
O            5.80589916670588       -3.71609355040049       14.03592527291451
H            6.34798675164559       -3.67007545297198       13.24168453326884
H            4.89568932717077       -3.83455472500662       13.74622522231913
O           -8.14564170876965        4.65035490911436       11.24601695925494
H           -7.27646012477581        5.02245233935555       11.42675134792652
H           -8.69001082622707        5.36245226175364       10.89558596674458
O            4.93464626722959        6.14161145638538       12.85794863557711
H            4.69643092718013        7.06316965844259       13.00111487587938
H            4.20513054923089        5.60776268050541       13.18835575651878
O           -2.99143336878345       -6.57560646041218       12.10977924019143
H           -3.33047654364258       -6.99610882986321       12.90575093805312
H           -3.51296081669098       -5.77937941575503       11.96592658865162
O           -6.30463739117622       13.09821905588201       10.82771698247810
H           -5.54495402584793       12.52997732613422       10.99023520329290
H           -6.60481521674012       12.91561280913757        9.93143823564357
O            8.79785881422307       -2.24307426202651        9.37521703177950
H            9.56625813583349       -1.77685802119316        9.03186314546808
H            8.07954786289677       -1.60422117281837        9.41896741602245
O          -11.22356887792109       -2.70449728626365       10.43237006891208
H          -11.05746217275361       -2.86053253496822        9.49710112835016
H          -11.04807843348912       -1.77238322982213       10.59705251312043
O            4.09842352557369       11.46197403189846       11.35826896547091
H            4.78177034984854       11.66434212484512       10.71173016719035
H            3.25569741641985       11.50293080608071       10.89500730367067
O            2.48930985797542       -9.59738019587589        9.10074483822942
H            3.38229405431346       -9.24591969118711        9.17430499987387
H            1.88698268595080       -8.87269220055703        9.29668896732457
O          -10.11641037359459        8.24903092493726        7.53235031948933
H          -10.61704325289779        7.66137202231264        6.95782505547008
H          -10.04855402954217        9.09499995219556        7.07848835525560
O           10.68819653629619        6.45442612442993        6.27632664003876
H           11.16700819993451        7.22489217226912        5.95595753717003
H            9.82972704281046        6.76574644424720        6.58138081473708
O          -11.20185780029488      -10.93172571945468        4.64334047562872
H          -10.26283115169841      -10.73407558663404        4.71770814139431
H          -11.63459384941582      -10.12602954758459        4.34332799714373
O           -1.47653207870287       14.65475470037604        4.75964217185676
H           -1.60599632132692       13.96421365018607        5.41745715976000
H           -1.43536054997965       15.49101372294250        5.23300287109473
O            8.76756006052070       -5.55498321465412        4.87559040626308
H            8.07051412395645       -6.20951408049529        4.98260483837627
H            8.96616728434325       -5.20820063395241        5.75082871026948
O          -10.56921022156632        3.77003906743837        3.49874249055483
H          -10.19862923383606        3.58361873004211        2.63045198630915
H          -11.49891031530573        3.98076053015401        3.36717267865266
O            8.87586427844616       11.06344728627758        4.51596838484771
H            8.98379628773105       11.37422768085079        3.61184628880055
H            8.05530457916386       10.56055461609020        4.54156022663629
O           -1.13189587919013      -12.59034787751572        1.94737607830562
H           -0.22718516575064      -12.68507421665964        1.63297127957691
H           -1.18183862526293      -11.74515212091608        2.40508427350095
O           -8.09574492421486       12.56271643605065        4.45024091108494
H           -7.44892856153786       11.90071887586098        4.18535363455373
H           -8.68597037248138       12.69200716845777        3.70167399063718
O            9.88743482845533       -1.41890154083012        1.20632784105230
H            9.58313797803954       -0.63042273550883        1.66692513398629
H            9.77775031530057       -2.15721847611402        1.81311831280947
O          -11.18233632910826       -7.73796972623032       -1.02160044277254
H          -10.86004426463463       -7.89648197699460       -0.12888676463098
H          -11.23958377320835       -6.78387377582677       -1.13397613152655
O            3.10775742786175       14.79661497250251        1.63308730057524
H            3.28193128520874       14.87981244664335        0.69053658002806
H            2.15289807645967       14.84037676396641        1.74723175257556
O            3.00820694136989      -10.44800946797302       -0.92135052363176
H            3.80634108133245      -10.10760316650708       -1.33702955270359
H            2.27458487328645      -10.23870812814080       -1.50815352380466
O          -14.14410061226818        5.96955456868683       -0.36588733414261
H          -13.58411748167295        5.24897472563241       -0.67171763386827
H          -14.64561010107554        6.27514713460907       -1.12787252507170
O           11.27575064756038        7.17740922234618       -2.00761070439543
H           10.93284368062277        6.32745018287636       -1.71296096114937
H           10.75425185660445        7.85628474656313       -1.56792259893647
O           -8.21814891445683      -10.99364839130418       -4.48462594303860
H           -7.36549527808269      -11.32553642708299       -4.18638340540877
H           -8.68523012703944      -10.67757258482751       -3.70456862810962
O           -5.22450768424012       15.49914427192341       -2.73226669772506
H           -4.37393273957975       15.34652457897371       -2.30833458433143
H           -5.14861618974922       15.17715574399871       -3.63607601104659
O           11.17386098497286       -3.33402867679763       -3.94935533838944
H           11.21594382342875       -3.24711028919456       -2.99163287757820
H           11.08755072656259       -2.44497957841825       -4.30794755748264
O          -12.36583282357437       -1.34954357559314       -6.52160178095549
H          -12.18644282897799       -2.29280634745640       -6.59030974525940
H          -12.18770301858733       -0.96666504722775       -7.38647920105132
O            5.14665640269546       11.96636494554669       -7.12065551668444
H            5.06033931815870       11.66025757446117       -6.21233018083669
H            4.28151732880437       12.29063206866500       -7.39038411835188
O            0.61004684833103      -10.15667853124026       -5.89646515742403
H            1.51231623574530      -10.24808452589066       -6.21798578842191
H            0.43081410815907       -9.21340203397259       -5.82791299233727
O           -9.01675218884574       10.93778989127604       -6.29793594464466
H           -8.34302317228869       10.41362276407255       -5.85269353012944
H           -9.11620228181817       11.75191541941176       -5.79497868325206
O           10.90600648493857        4.75718958632542       -7.08069102364480
H           11.31114887322980        4.93041005063104       -6.22488437525926
H           10.42712161955802        3.92590396254883       -7.00212016124927
O          -10.98120449322606       -6.93103433922680       -6.55007609601502
H          -10.10314578234433       -7.27409792283393       -6.74494799065059
H          -11.32167179789936       -7.44051830815762       -5.80842496335336
O           -0.38875272816517       12.77988473755738       -7.78054277464590
H           -0.36632276096426       11.92438393561762       -8.22101217268047
H           -1.28121035183994       13.12326399440918       -7.88628545347976
O            7.15749575821805       -3.41527876969878       -8.13373837465528
H            7.87250838933241       -3.57158592077515       -7.50899652816454
H            6.34805542484791       -3.72700701843584       -7.71674510728195
O          -10.09329269963989        2.20696261438589      -10.85082543146400
H           -9.77436943590382        1.30369703183931      -10.94652491627996
H          -10.25170707492171        2.54516513102091      -11.73727040996723
O            5.46221779826278       10.06611102628602      -12.45899940313817
H            5.92382163492020        9.22920634890028      -12.34595200016736
H            5.35005895729482       10.44318884026980      -11.58046189089692
O           -5.80938519355692       -7.58738566655186      -10.96133325630373
H           -4.88787469089783       -7.71344046091207      -10.71387353557165
H           -5.92003627025000       -6.65221558330025      -11.16181956986353
O           -4.68237741672362       10.66982764846578      -10.04146092851004
H           -5.02288126861356        9.91800293805530      -10.53612922297183
H           -5.16765303679654       10.70409308265832       -9.21079739689990
O            5.62926430805920        0.18498210237146      -12.07812933852857
H            5.73962696530872       -0.63724088515493      -11.59025026048083
H            6.29610289858114        0.79692402355868      -11.75122712360452
O           -8.42739833530359       -2.82201053758519      -13.06423893216550
H           -9.13509388796714       -3.15993311967509      -13.62016186491002
H           -8.71214086830104       -2.98068470038916      -12.14587657240939
O            0.90806414708090        7.52992192668886      -13.03603266654240
H            1.61843660535468        7.26403978730907      -12.44320465071371
H            1.21595093763071        8.30889978503210      -13.50898540448262
O            0.50958006843125       -1.77371602180610      -12.86765242814685
H            1.38591236762675       -1.55116492041140      -13.19666812986691
H           -0.08774927985080       -1.08135415591899      -13.16854293263449
O           -1.82686002753795        2.96207939556988      -14.69384852736920
H           -1.40446696882121        3.51196988746180      -14.02605723365440
H           -2.71480158083066        3.30966894828213      -14.82209379104340
