%chk=kojate_solvated_2_Reduced_Structure.chk
#p B3LYP empiricaldispersion=gd3 scrf=(cpcm,solvent=water) scf=(maxcycles=500,xqc,maxconventional=1000) 6-31+G(2df,p)

Reduced_Structure

-1 1
C            1.52735208282310       -0.63949832567130       -0.52736532873744
C            2.15091201188283       -1.62567928316408        0.17345028029920
O            1.60168487287667       -2.21931476873570        1.23381608089784
C            0.35581967545381       -1.81764294987803        1.64576042245931
C           -0.38201983589017       -0.82686416633906        1.03257951999055
C            0.23043405352195       -0.17919096566010       -0.15107073317920
O           -0.40026736357936        0.71789489323728       -0.75863597460989
O           -1.53653366510931       -0.43956466918328        1.41115857217425
C            3.52096861736322       -2.16704018544733       -0.16293308909060
O            4.29002399121076       -1.28796056236923       -0.95114943802123
H            2.02010732111423       -0.20576317174317       -1.38265660338953
H            0.02766716138188       -2.37370400345298        2.50899214662447
H            4.04044416463590       -2.42134618374480        0.76991257464435
H            3.41663199613132       -3.08330900072026       -0.75344304459703
H            4.46988824967476       -0.48632598307831       -0.44040010745454
Fe          -2.19848868405506        1.11783394302440        0.05916121700756
C           -3.66730691609138        2.73555277616963       -3.47997334345727
C           -4.24735117491467        2.13152541758074       -4.55259147595046
O           -4.45857016441102        0.81554163391184       -4.61720192818876
C           -4.07741576256889        0.03237245521423       -3.55568790913527
C           -3.47172798387074        0.51316170954943       -2.41388254565132
C           -3.23990817453764        1.97510045616233       -2.35106739864551
O           -2.70087867222551        2.47058463301013       -1.33386928648810
O           -3.10950730991692       -0.20493517183650       -1.42399700535360
C           -4.71598507441154        2.87036410695426       -5.78478460116825
O           -4.08172695847532        4.11791424308186       -5.95223991419042
H           -3.53304482344598        3.80542656881379       -3.48310684105470
H           -4.31463358351627       -1.00537035441663       -3.72690247661403
H           -4.56623687441893        2.23046501749776       -6.66335829113777
H           -5.78569480470755        3.08697530422184       -5.70030639321297
H           -3.13987914280521        3.96394362907816       -6.10859422111462
C           -2.06697426383007        3.97989309442050        3.07656992049187
C           -3.04769267155809        4.44172266849688        3.89545113139807
O           -4.30470361204962        3.98752542490956        3.85670382624984
C           -4.62730074774679        3.02402006415183        2.93338178028141
C           -3.73495636058808        2.49329006733876        2.03615142585094
C           -2.33888289919174        2.97192744550473        2.09990345300017
O           -1.47986228779822        2.48942502005882        1.32656699774748
O           -4.02626662464301        1.60629193792209        1.15080683968087
C           -2.85743802012546        5.52036611504787        4.93664548209074
O           -1.60205279422198        6.15135833973055        4.87217328875994
H           -1.06650109533325        4.37019673618338        3.16997344539572
H           -5.66518198515316        2.73728841723793        2.99452613110388
H           -3.67237994901264        6.24982984351040        4.83434474117675
H           -2.92403043018591        5.07669806275358        5.93494536962500
H           -1.53494633565991        6.62712573898595        4.03273344278450
O            2.59782284075187        1.77463052153663        5.51836031465895
H            1.98551593152467        2.30137024670573        6.04150894635482
H            2.18044839169083        1.63191480423742        4.66276986250050
O           -2.13461126009555       -0.04768335657351        7.04783372788274
H           -2.76332632965979       -0.74832550420957        7.24487438147200
H           -2.07408676207252        0.01280831106154        6.08885610091186
O            0.24606750759713        6.66214998347936        7.05260455103725
H           -0.30135715467139        6.34401805899165        6.31973765675677
H           -0.08311534403444        7.54171270437682        7.26227191680350
O            2.48803240957311       -2.92352828328900        7.60047528302633
H            1.77663840302761       -2.73462975755006        6.98115179733334
H            2.60673190182473       -2.13359064774078        8.13791086870118
O           -6.93906978264227        2.88711523581727        8.31493190904834
H           -6.08152070290787        2.45708050268682        8.23163853009903
H           -7.15981523850100        3.24272092124355        7.44784877094012
O            5.58091850176123        6.14209953569956        5.55974787306882
H            5.52798178558167        5.49373482203819        4.85034857270693
H            4.81768955753443        5.99587669525457        6.12807308446275
O           -4.38444598308724       -4.10788324467480        4.21804450452933
H           -3.75708257835807       -4.71149834910146        3.80811932591373
H           -4.33444295093004       -3.28127690790496        3.72716685336666
O           -5.41875450564542        7.52727460508984        3.76298825969382
H           -5.39984026714979        7.84576173615895        2.85479610600906
H           -6.34523618522593        7.45870726468873        4.01217913515428
O            4.91441859286803       -2.64891044476583        2.98623242226065
H            4.81468543765502       -3.47176216557512        3.47493715924241
H            4.97995369127034       -1.94546614598259        3.64055300539722
O           -6.45018392033250        0.61573449197411        1.17373991685342
H           -5.53392714186243        1.02813323848459        1.15382084634613
H           -6.30115510478607       -0.27344040388699        0.84436859012526
O            2.14056080228509        9.10262435015161        2.36413676674076
H            2.76988891109054        8.78676964398081        1.70817709702141
H            2.45598810145026        8.80088835858570        3.22279435337272
O           -0.66651874812813       -7.34121865455771        1.32064838832454
H            0.06461726786265       -6.77075079321837        1.06419323045258
H           -1.35330964860779       -7.23186485888868        0.65570822053377
O           -7.44997206972251        6.01284860340254       -1.01910693375188
H           -7.01961741431759        5.21790406777740       -0.68830985039127
H           -6.81614461422349        6.45450129900594       -1.59357943579375
O            3.71427829664988        4.21603157040082        0.68071428392316
H            3.91254384812321        4.62918374332180       -0.16510660231520
H            2.78084498782510        3.97310248516136        0.66162739390288
O           -5.39171447916397       -5.22366771605474       -0.78407305941188
H           -4.90703898567383       -4.39183826459494       -0.72941340309278
H           -6.13764587753091       -5.14966958510008       -0.18229125109355
O           -2.33737744195215        8.07553174129366       -0.79410328580310
H           -2.26740334354285        7.11983167746440       -0.69845704712928
H           -1.50110064392346        8.44784796071533       -0.49599549889288
O            5.52027493922884       -1.83119641663998       -3.53478700259706
H            6.36935499949341       -2.14384257765731       -3.20777873584409
H            4.99437667267428       -1.62903618911925       -2.74658677272118
O           -9.47421113130590        1.54580592069105       -3.47251784871026
H           -8.88897287216617        1.23441395401886       -2.77496220653386
H           -9.66084019107302        2.47175919955167       -3.28708316827278
O            3.29524050572909        8.35425109099435       -2.98309445382218
H            3.58017056485880        7.75631272528978       -3.68148427686402
H            2.49823622964916        8.79109095740520       -3.29823896687795
O           -0.79016072722087       -4.96912619908291       -3.48916837954362
H           -0.88890071517020       -4.15656256089442       -2.98270704279696
H           -1.64321253396621       -5.15061624457178       -3.89565028652450
O           -5.09561241279361        6.77047460889894       -6.54940132792323
H           -4.85942845054722        5.83739784778601       -6.43812311905603
H           -4.79228742021245        7.21544180690421       -5.75154530983070
O            3.55815642593376        3.30263540928194       -4.92245924772247
H            3.98765845170787        2.44453520722375       -4.99327487683456
H            2.74683582378716        3.16931331253949       -4.42115740804138
O           -8.22375624678159       -1.42006909080891       -7.83420199394947
H           -7.60684904298462       -1.61987315294741       -7.12311131094437
H           -8.69431360586207       -0.62142205937500       -7.57536357697502
O            0.45807026927348        7.47921017370583       -7.31759573545763
H            0.71691847738900        6.55250301651261       -7.32941392541422
H           -0.47734607918888        7.51577150899170       -7.53985837277465
O            0.82658191474906       -0.84871958036753       -6.39250979069566
H            1.52239269852691       -1.42418708006265       -6.05921058107135
H            0.31395395992539       -0.55969955981415       -5.63071219038095
O           -3.84798066301635        1.06266438175352       -8.57726833599661
H           -3.13914690433042        0.41302595936257       -8.61670269051480
H           -4.39967960796979        0.92433078327032       -9.35400198818872
O 1.4090351191170392 1.7940128811957867 11.888840730915337
H 2.309035119117039 1.7940128811957867 11.888840730915337
H 1.116023780105598 2.644979599235172 11.888840730915337
O -5.089239453814873 -1.5237744042271577 11.206071017653661
H -4.1892394538148725 -1.5237744042271577 11.206071017653661
H -5.382250792826314 -0.6728076861877725 11.206071017653661
O -0.9212566414462761 8.018456944518404 10.523301304391987
H -0.021256641446276037 8.018456944518404 10.523301304391987
H -1.214267980457717 8.86942366255779 10.523301304391987
O 2.963119588561639 -3.9849781586711854 9.840531591130311
H 3.8631195885616387 -3.9849781586711854 9.840531591130311
H 2.6701082495501978 -3.1340114406318005 9.840531591130311
O -9.472236007229354 3.2099335817856423 9.157761877868635
H -8.572236007229353 3.2099335817856423 9.157761877868635
H -9.765247346240795 4.060900299825027 9.157761877868635
O 5.9939044098831555 6.540363394560471 8.47499216460696
H 6.893904409883156 6.540363394560471 8.47499216460696
H 5.7008930708717145 7.391330112599856 8.47499216460696
O -3.921972749882511 -7.336411102619708 7.792222451345282
H -3.021972749882511 -7.336411102619708 7.792222451345282
H -4.214984088893952 -6.485444384580323 7.792222451345282
O -6.068401963201682 10.652721863780897 7.109452738083606
H -5.168401963201681 10.652721863780897 7.109452738083606
H -6.361413302213123 11.503688581820283 7.109452738083606
O 8.337850617915064 -1.7868944997416587 6.426683024821931
H 9.237850617915065 -1.7868944997416587 6.426683024821931
H 8.044839278903623 -0.9359277817022735 6.426683024821931
O -11.48119643364842 -2.3394851962218235 5.743913311560255
H -10.581196433648419 -2.3394851962218235 5.743913311560255
H -11.77420777265986 -1.4885184781824383 5.743913311560255
O 3.2677705338622824 11.913063990729249 5.061143598298579
H 4.167770533862282 11.913063990729249 5.061143598298579
H 2.9747591948508414 12.764030708768635 5.061143598298579
O 1.9624388050606538 -9.14125161937294 4.378373885036906
H 2.8624388050606537 -9.14125161937294 4.378373885036906
H 1.6694274660492128 -8.290284901333553 4.378373885036906
O -11.59229847418387 7.661526171220542 3.69560417177523
H -10.69229847418387 7.661526171220542 3.69560417177523
H -11.885309813195311 8.512492889259928 3.69560417177523
O 10.15452698394585 4.349088366368893 3.0128344585135522
H 11.05452698394585 4.349088366368893 3.0128344585135522
H 9.861515644934409 5.200055084408278 3.0128344585135522
O -8.400873948681257 -8.067962799410616 2.330064745251876
H -7.500873948681257 -8.067962799410616 2.330064745251876
H -8.693885287692698 -7.216996081371231 2.330064745251876
O -3.031595160604634 13.863835804352341 1.6472950319902
H -2.131595160604634 13.863835804352341 1.6472950319902
H -3.324606499616075 14.714802522391727 1.6472950319902
O 7.897213548337982 -6.098598524063875 0.9645253187285255
H 8.797213548337982 -6.098598524063875 0.9645253187285255
H 7.604202209326541 -5.24763180602449 0.9645253187285255
O -13.742146457969385 1.286418739453293 0.2817556054668496
H -12.842146457969385 1.286418739453293 0.2817556054668496
H -14.035157796980826 2.1373854574926785 0.2817556054668496
O 7.240524261757603 10.459684790820196 -0.40101410779482594
H 8.140524261757603 10.459684790820196 -0.40101410779482594
H 6.947512922746162 11.310651508859582 -0.40101410779482594
O -2.0332364119881055 -10.440022011695214 -1.083783821056502
H -1.1332364119881055 -10.440022011695214 -1.083783821056502
H -2.3262477509995465 -9.589055293655829 -1.083783821056502
O -9.265430003364093 11.138509448296588 -1.7665535343181764
H -8.365430003364093 11.138509448296588 -1.7665535343181764
H -9.558441342375534 11.989476166335974 -1.7665535343181764
O 10.480099335217611 0.1864769502023702 -2.4493232475798523
H 11.380099335217611 0.1864769502023702 -2.4493232475798523
H 10.18708799620617 1.0374436682417554 -2.4493232475798523
O -11.235411319491584 -5.002228131929598 -3.1320929608415287
H -10.335411319491584 -5.002228131929598 -3.1320929608415287
H -11.528422658503025 -4.151261413890213 -3.1320929608415287
O 1.100864455718551 13.210760686914155 -3.814862674103206
H 2.000864455718551 13.210760686914155 -3.814862674103206
H 0.8078531167071099 14.06172740495354 -3.814862674103206
O 4.230451307159749 -8.14971520499165 -4.497632387364884
H 5.130451307159749 -8.14971520499165 -4.497632387364884
H 3.9374399681483077 -7.298748486952266 -4.497632387364884
O -12.11120607402841 5.189637506735783 -5.1804021006265595
H -11.211206074028409 5.189637506735783 -5.1804021006265595
H -12.40421741303985 6.040604224775168 -5.1804021006265595
O 8.366808517448435 6.3377243181073855 -5.863171813888233
H 9.266808517448435 6.3377243181073855 -5.863171813888233
H 8.073797178436994 7.18869103614677 -5.863171813888233
O -5.497534422375667 -7.835489056313788 -6.545941527149907
H -4.5975344223756665 -7.835489056313788 -6.545941527149907
H -5.790545761387108 -6.984522338274403 -6.545941527149907
O -4.846031270036118 11.187121499155218 -7.228711240411583
H -3.946031270036118 11.187121499155218 -7.228711240411583
H -5.139042609047559 12.038088217194604 -7.228711240411583
O 6.901563631194536 -2.6045454518412727 -7.9114809536732595
H 7.801563631194536 -2.6045454518412727 -7.9114809536732595
H 6.608552292183095 -1.7535787338018876 -7.9114809536732595
O -10.018556491485166 -0.4600116266830587 -8.594250666934936
H -9.118556491485165 -0.4600116266830587 -8.594250666934936
H -10.311567830496607 0.39095509135632645 -8.594250666934936
O 2.9289315804884493 8.631512710069277 -9.277020380196612
H 3.828931580488449 8.631512710069277 -9.277020380196612
H 2.635920241477008 9.482479428108663 -9.277020380196612
O -0.23412958050374244 -5.382761007771237 -9.959790093458288
H 0.6658704194962576 -5.382761007771237 -9.959790093458288
H -0.5271409195151835 -4.531794289731852 -9.959790093458288
O -6.407630001636562 5.619908010380989 -10.642559806719962
H -5.507630001636562 5.619908010380989 -10.642559806719962
H -6.700641340648003 6.470874728420374 -10.642559806719962
O 3.4273779081820526 2.1995455659918948 -11.32532951998164
H 4.3273779081820525 2.1995455659918948 -11.32532951998164
H 3.1343665691706115 3.0505122840312797 -11.32532951998164
O -3.4209372519841565 -0.3175687269169394 -12.008099233243316
H -2.5209372519841566 -0.3175687269169394 -12.008099233243316
H -3.7139485909955976 0.5333979911224458 -12.008099233243316


