19
Fe_2_B3PW91.log	Energy: -1080492.3315998
Fe        -0.00009        0.00027       -0.00012
O         -1.86179        0.02868       -1.04801
H         -1.97224        0.04279       -2.00661
O          0.01417        2.14104        0.03262
H          0.58240        2.70209        0.57446
O         -1.07207       -0.02208        1.81789
H         -1.39768       -0.80645        2.27744
O          1.86145       -0.02922        1.04836
H          2.74400       -0.03076        0.65553
O         -0.01429       -2.14081       -0.03285
H         -0.58435       -2.70211       -0.57246
O          1.07267        0.02181       -1.81763
H          1.39927        0.80556       -2.27745
H          1.38650       -0.75131       -2.30362
H         -0.54691        2.72560       -0.49136
H         -2.74368        0.03033       -0.65598
H          0.54962       -2.72512        0.48906
H         -1.38731        0.75045        2.30386
H          1.97165       -0.04337        2.00725
