19
Fe_2_M05-2X.log	Energy: -1080544.6945667
Fe        -0.00007        0.00002       -0.00001
O          0.10296        1.77123        1.18340
H          0.60182        2.56880        0.97452
O          1.43876       -0.95277        1.25193
H          1.88425       -1.78872        1.07480
O         -1.59044       -0.74750        1.20891
H         -2.52963       -0.72300        0.99461
O         -0.10277       -1.77116       -1.18351
H          0.37667       -1.93681       -2.00272
O         -1.43891        0.95295       -1.25173
H         -1.79283        0.60678       -2.07845
O          1.59050        0.74719       -1.20897
H          2.52969        0.72218       -0.99468
H          1.49841        1.21100       -2.04852
H          1.79344       -0.60600        2.07798
H         -0.37594        1.93687        2.00294
H         -1.88485        1.78860       -1.07409
H         -1.49812       -1.21104        2.04858
H         -0.60197       -2.56865       -0.97506
