19
Fe_2_MPW1PW91.log	Energy: -1080595.6945265
Fe         0.00023       -0.00071       -0.00007
O          1.87754        0.10936       -1.03329
H          2.00154        0.08826       -1.98831
O          0.16489       -2.14450        0.07070
H         -0.36424       -2.74318        0.60895
O          1.05326        0.14486        1.83070
H          1.30078        0.95976        2.28171
O         -1.87719       -0.10826        1.03367
H         -2.75111       -0.18841        0.63589
O         -0.16632        2.14361       -0.07043
H          0.36589        2.74385       -0.60424
O         -1.05257       -0.14330       -1.83114
H         -1.30358       -0.95641       -2.28336
H         -1.41736        0.59069       -2.33794
H          0.78281       -2.68881       -0.42922
H          2.75139        0.18694       -0.63537
H         -0.78985        2.68609        0.42496
H          1.42181       -0.58678        2.33825
H         -2.00088       -0.08774        1.98879
