19
Fe_2_B2PLYP.log	Energy: -1079906.1328738
Fe        -0.00015        0.00007       -0.00002
O         -0.44574       -1.75311        1.15747
H         -0.46359       -1.81171        2.12146
O          2.09784       -0.52417        0.01318
H          2.79314       -0.13594       -0.53316
O         -0.27710       -1.15530       -1.76132
H         -1.10986       -1.29579       -2.23073
O          0.44629        1.75303       -1.15743
H          0.66443        2.63075       -0.81817
O         -2.09800        0.52421       -0.01318
H         -2.79292        0.13718        0.53464
O          0.27726        1.15517        1.76136
H          1.11047        1.29567        2.22994
H         -0.39616        1.67561        2.21873
H          2.52185       -1.19302        0.56592
H         -0.66845       -2.62981        0.81806
H         -2.52250        1.19152       -0.56745
H          0.39676       -1.67588       -2.21792
H          0.46636        1.81111       -2.12137
