19
Fe_2_svwn.log	Energy: -1078035.6636488
Fe         0.00054       -0.00030       -0.00075
O         -1.34774       -1.03442       -1.15847
H         -1.70939       -0.76083       -2.02409
O         -1.57212        0.65611        1.15130
H         -1.51689        1.11063        2.01462
O          0.21351       -1.68464        1.15888
H          0.71102       -2.48767        0.90700
O          1.34780        1.03250        1.15977
H          1.79489        1.86363        0.90455
O          1.57414       -0.65351       -1.15170
H          1.52086       -1.10117       -2.01893
O         -0.21690        1.68471       -1.15822
H         -0.71803        2.48459       -0.90344
H          0.20666        1.86349       -2.02056
H         -2.51457        0.62542        0.89314
H         -1.79130       -1.86724       -0.90256
H          2.51577       -0.62749       -0.88990
H         -0.21084       -1.85844        2.02183
H          1.70824        0.75682        2.02524
