19
Fe_2_X3LYP.log	Energy: -1080479.9174356
Fe         0.00023       -0.00015       -0.00001
O          1.22693        1.35432       -1.13511
H          1.30395        1.38338       -2.09859
O          1.65520       -1.39215        0.11797
H          1.72021       -2.16269        0.69859
O          0.67483        0.95964        1.77239
H          0.27896        1.73960        2.18573
O         -1.22740       -1.35379        1.13515
H         -1.80186       -2.04644        0.78106
O         -1.65502        1.39198       -0.11809
H         -1.71871        2.16433       -0.69643
O         -0.67527       -0.95951       -1.77229
H         -0.27964       -1.73888       -2.18700
H         -1.46071       -0.72631       -2.28666
H          2.46958       -1.36216       -0.40259
H          1.80637        2.04266       -0.78069
H         -2.47074        1.36008        0.40024
H          1.45947        0.72670        2.28806
H         -1.30700       -1.38045        2.09856
