19
Fe_2_CAM-B3LYP.log	Energy: -1080565.7525294
Fe        -0.00014       -0.00015       -0.00001
O          1.23076       -1.31154        1.15230
H          1.28126       -1.34330        2.11695
O          1.58815        1.44947       -0.04322
H          1.63679        2.23098       -0.60954
O          0.77182       -0.89911       -1.74878
H          0.41856       -1.68286       -2.19116
O         -1.23113        1.31128       -1.15220
H         -1.83987        1.97826       -0.80765
O         -1.58840       -1.44944        0.04303
H         -1.63803       -2.23010        0.61043
O         -0.77086        0.89968        1.74889
H         -0.41659        1.68357        2.19020
H         -1.56502        0.62817        2.22880
H          2.38656        1.44151        0.50114
H          1.83786       -1.98008        0.80789
H         -2.38595       -1.44220       -0.50260
H          1.56632       -0.62664       -2.22758
H         -1.28092        1.34385       -2.11686
