19
Fe_2_B97D.log	Energy: -1080754.9105902
Fe         0.00096        0.00047        0.00003
O         -0.54467        1.82599        0.98544
H         -0.52214        1.98118        1.94190
O         -2.05302       -0.66732        0.10331
H         -2.43702       -1.41520       -0.37848
O         -0.40669        0.92405       -1.86378
H          0.19610        1.49255       -2.36766
O          0.54496       -1.82575       -0.98506
H          0.90251       -2.62470       -0.57038
O          2.05440        0.66572       -0.10476
H          2.44248        1.40804        0.38249
O          0.40254       -0.92367        1.86487
H         -0.20549       -1.48884        2.36602
H          1.26182       -0.95240        2.31320
H         -2.74755       -0.31289        0.67873
H         -0.90073        2.62569        0.56997
H          2.74570        0.31489       -0.68627
H         -1.26808        0.94740       -2.30865
H          0.52722       -1.97996       -1.94177
