19
Fe_2_n12.log	Energy: -1080668.7591563
Fe        -0.00025       -0.00003        0.00002
O         -0.09810        1.81466       -1.06252
H         -0.11146        1.90604       -2.01534
O          2.12444        0.09681       -0.02733
H          2.72100       -0.41172        0.52193
O         -0.02551        1.09020        1.76824
H         -0.80719        1.37765        2.24144
O          0.09810       -1.81473        1.06242
H          0.13359       -2.69260        0.68240
O         -2.12464       -0.09658        0.02733
H         -2.72103        0.41036       -0.52359
O          0.02633       -1.09030       -1.76818
H          0.80884       -1.37717       -2.24034
H         -0.73820       -1.45089       -2.21877
H          2.65931        0.65648       -0.59025
H         -0.13633        2.69244       -0.68257
H         -2.65973       -0.65447        0.59181
H          0.73987        1.45027        2.21780
H          0.11276       -1.90615        2.01521
