19
Fe_2_M08-HX.log	Energy: -1080482.9046944
Fe        -0.00017       -0.00091       -0.00069
O         -1.16036        1.36077        1.18379
H         -1.32897        2.28595        0.97271
O         -0.58109       -1.66307        1.21763
H         -1.27271       -2.29976        1.00410
O         -1.75465       -0.34395       -1.18797
H         -1.80818       -0.81442       -2.02622
O          1.15670       -1.36176       -1.18676
H          1.58419       -1.17037       -2.02902
O          0.58659        1.66390       -1.21490
H          1.30073        2.27831       -1.01383
O          1.75316        0.34660        1.18884
H          1.80190        0.81717        2.02707
H          2.64164        0.04050        0.97845
H         -0.21110       -1.91727        2.06843
H         -1.60381        1.16885        2.01744
H          0.19431        1.94057       -2.04997
H         -2.64316       -0.04490       -0.96837
H          1.34670       -2.28108       -0.96783
