19
Fe_2_OLYP.log	Energy: -1080686.2206113
Fe        -0.00024        0.00006        0.00004
O         -0.12611       -2.05660       -0.77591
H         -0.18111       -2.87599       -0.26284
O          2.20869       -0.13352       -0.00390
H          2.82800        0.46763        0.43538
O          0.04468        0.79240       -2.00988
H         -0.71601        1.09730       -2.52682
O          0.12613        2.05677        0.77552
H          0.14233        2.31550        1.70856
O         -2.20884        0.13299        0.00412
H         -2.75002        0.80414        0.44523
O         -0.04384       -0.79217        2.00997
H          0.71763       -1.09695        2.52584
H         -0.83382       -0.99932        2.53135
H          2.74952       -0.80615       -0.44319
H         -0.14103       -2.31510       -1.70903
H         -2.82784       -0.46715       -0.43697
H          0.83543        0.99941       -2.53017
H          0.17740        2.87623        0.26217
