19
Fe_2_BLYP.log	Energy: -1080576.1518046
Fe        -0.00033       -0.00022       -0.00007
O          1.40071       -1.31307        0.98094
H          1.48680       -1.44382        1.94512
O          1.45297        1.60185        0.06913
H          1.41648        2.43969       -0.43172
O          0.78624       -0.62639       -1.87276
H          0.51281       -1.41583       -2.38047
O         -1.39969        1.31449       -0.98071
H         -2.08738        1.85955       -0.55181
O         -1.45319       -1.60220       -0.06927
H         -1.41847       -2.43830        0.43464
O         -0.78587        0.62628        1.87293
H         -0.51324        1.41735        2.37847
H         -1.54922        0.23174        2.33914
H          2.25660        1.63556        0.62337
H          2.08043       -1.86755        0.55101
H         -2.25482       -1.63800       -0.62627
H          1.55090       -0.23212       -2.33709
H         -1.48168        1.44995       -1.94451
