19
Fe_2_M05.log	Energy: -1080508.2321626
Fe        -0.01219       -0.00224       -0.00036
O         -0.33239        1.64294        1.34178
H         -0.53742        2.55149        1.09288
O          2.14535        0.35767        0.10558
H          2.82493       -0.06588       -0.43397
O          0.15307       -1.36472        1.63544
H         -0.54642       -1.90457        2.02229
O          0.36272       -1.63710       -1.34184
H          0.40207       -1.59265       -2.30379
O         -2.15625       -0.35694       -0.10286
H         -2.63851       -0.82291       -0.79313
O         -0.13988        1.36351       -1.63694
H          0.59507        1.86217       -2.01318
H         -0.93205        1.63194       -2.11662
H          2.60506        0.96680        0.69572
H         -0.34208        1.60780        2.30513
H         -2.81716       -0.07172        0.53810
H          0.96577       -1.58414        2.10595
H          0.47682       -2.56293       -1.09938
