19
Fe_2_OTPSS.log	Energy: -1080618.7334990
Fe        -0.00000       -0.00013        0.00001
O          2.11604       -0.24075        0.54693
H          2.87202       -0.32887       -0.04702
O         -0.24719       -2.18270       -0.00854
H         -0.98472       -2.68088       -0.38325
O         -0.55414        0.05427        2.08022
H         -0.67454        0.84509        2.62192
O         -2.11602        0.24062       -0.54702
H         -2.46949        0.28492       -1.44440
O          0.24718        2.18268        0.00861
H         -0.35920        2.83686       -0.36137
O          0.55416       -0.05383       -2.08023
H          0.67473       -0.84427       -2.62245
H          0.85028        0.69426       -2.61503
H          0.35850       -2.83684        0.36250
H          2.46955       -0.28406        1.44435
H          0.98526        2.68086        0.38211
H         -0.85029       -0.69342        2.61556
H         -2.87231        0.32738        0.04710
