19
Fe_2_PBE0.log	Energy: -1080168.2771257
Fe         0.00001        0.00004       -0.00001
O         -0.03676       -2.14110        0.00006
H          0.51428       -2.72389       -0.53446
O         -1.84383        0.03148        1.07746
H         -1.94055        0.03347        2.03649
O          1.10400       -0.01883        1.79794
H          1.44126        0.75243        2.26842
O          0.03665        2.14114       -0.00007
H          0.60673        2.70473       -0.53519
O          1.84388       -0.03149       -1.07740
H          1.94065       -0.03357       -2.03643
O         -1.10396        0.01870       -1.79797
H         -1.44106       -0.75268       -2.26836
H         -1.41551        0.80100       -2.26795
H         -2.73098        0.04581        0.70086
H         -0.60715       -2.70462        0.53492
H          2.73100       -0.04567       -0.70076
H          1.41540       -0.80124        2.26783
H         -0.51418        2.72386        0.53473
