19
Fe_2_M06.log	Energy: -1080464.4383332
Fe         0.00013        0.00007       -0.00011
O          0.14693        1.69704       -1.28236
H          0.26613        2.61506       -1.00727
O         -2.13987        0.25340        0.08563
H         -2.74667       -0.16873        0.70681
O         -0.22573       -1.30875       -1.64411
H          0.48259       -1.76661       -2.11525
O         -0.14766       -1.69658        1.28268
H         -0.10966       -1.69144        2.24762
O          2.13984       -0.25454       -0.08522
H          2.67473       -0.81592        0.49014
O          0.22613        1.30931        1.64359
H         -0.48226        1.76687        2.11491
H          1.06073        1.58337        2.04571
H         -2.67548        0.81593       -0.48791
H          0.10835        1.69232       -2.24729
H          2.74729        0.16522       -0.70737
H         -1.06031       -1.58206       -2.04676
H         -0.26594       -2.61482        1.00789
