19
Fe_2_M06-L.log	Energy: -1080548.9276514
Fe         0.00004        0.00010       -0.00002
O         -1.15616       -0.29298        1.74984
H         -1.65955        0.37706        2.22714
O          1.77383        0.37996        1.15167
H          2.65290        0.58253        0.81227
O          0.47997       -2.10555       -0.03572
H          0.09217       -2.77893       -0.60611
O          1.15601        0.29287       -1.75001
H          1.32047        1.13130       -2.19741
O         -1.77388       -0.37996       -1.15147
H         -2.65381       -0.57878       -0.81148
O         -0.47989        2.10555        0.03570
H         -0.09301        2.77874        0.60697
H         -1.12384        2.56150       -0.51801
H          1.84533        0.38285        2.11289
H         -1.32142       -1.13176        2.19635
H         -1.84454       -0.38761       -2.11293
H          1.12472       -2.56140        0.51715
H          1.66045       -0.37710       -2.22627
