19
Fe_2_M06-HF.log	Energy: -1080527.0328358
Fe         0.00006        0.00003        0.00007
O          1.53034       -0.87421       -1.20742
H          2.47534       -0.86838       -1.01353
O          0.01400        1.77029       -1.19514
H         -0.46874        2.58387       -1.00603
O         -1.51965       -0.86391       -1.22703
H         -1.98353       -1.69166       -1.05281
O         -1.53075        0.87355        1.20739
H         -1.39361        1.35534        2.03174
O         -0.01348       -1.77030        1.19511
H         -0.51723       -1.89859        2.00770
O          1.51946        0.86450        1.22698
H          1.98382        1.69182        1.05203
H          1.86599        0.48903        2.04522
H          0.51733        1.89795       -2.00809
H          1.39257       -1.35586       -2.03173
H          0.46980       -2.58359        1.00597
H         -1.86700       -0.48752       -2.04450
H         -2.47568        0.86731        1.01294
