19
Fe_2_HSE06.log	Energy: -1080202.3076670
Fe        -0.00005       -0.00011        0.00004
O         -1.88280        0.02660        1.01994
H         -2.75805        0.04353        0.61588
O          0.03667        2.14709        0.01023
H          0.62440        2.71330       -0.50310
O          1.04485       -0.02650        1.83664
H          1.34003       -0.81069        2.31440
O          1.88262       -0.02676       -1.02015
H          2.01019       -0.02414       -1.97582
O         -0.03614       -2.14720       -0.01025
H          0.53155       -2.72823       -0.52955
O         -1.04511        0.02702       -1.83649
H         -1.33999        0.81164       -2.31373
H         -1.36689       -0.74199       -2.32169
H         -0.53125        2.72849        0.52886
H         -2.01057        0.02420        1.97559
H         -0.62302       -2.71380        0.50362
H          1.36623        0.74296        2.32140
H          2.75793       -0.04456       -0.61627
