19
Fe_2_BMK.log	Energy: -1080142.1968720
Fe         0.00015        0.00021        0.00002
O         -1.73320        0.25916        1.22021
H         -2.48410        0.82900        1.01863
O          1.11878        1.37081        1.19707
H          1.98198        1.73799        0.97513
O          0.65448       -1.65398        1.18351
H          0.53452       -2.58516        0.96515
O          1.73352       -0.26003       -1.21975
H          1.91970        0.17813       -2.05774
O         -1.11850       -1.37015       -1.19755
H         -0.84963       -1.75037       -2.04139
O         -0.65542        1.65373       -1.18352
H         -0.53692        2.58516       -0.96538
H         -1.13587        1.61010       -2.01785
H          0.85083        1.74990        2.04165
H         -1.91886       -0.18005        2.05777
H         -1.98269       -1.73574       -0.97681
H          1.13553       -1.61129        2.01754
H          2.48442       -0.82944       -1.01689
