199
 energy: -347.822687021887 gnorm: 0.002767518775 xtb: 6.6.0 (conda-forge)
C            4.75685450771222       -1.28812518629270        0.25948448076309
C            4.82864269945388       -0.83446725148958        1.56367648658094
C            3.71882074746808       -0.25655851668406        2.17109883784120
C            2.52094783697880       -0.14031269410539        1.47626677806782
C            2.45614028138048       -0.56995766429039        0.12735072712571
C            3.57505206421950       -1.14563389349242       -0.46632684133053
O            1.30333051322350       -0.38720029538149       -0.51670124796550
O            1.41097353256331        0.36524383846015        2.00634916380556
H            5.61405684957449       -1.74830433001472       -0.20930537706044
H            5.75274950477450       -0.91558751581042        2.11793843524459
H            3.77707619748424        0.09634712264500        3.18643185623224
H            3.51401902672990       -1.46298608034866       -1.49521653416598
Fe          -0.10461526260754        0.02080910425768        0.82768366773078
C           -2.53519629785151        4.47441344893229        1.11246116246022
C           -3.21570980845396        3.82892251133850        2.12900783260049
C           -2.85301690434197        2.54321229266258        2.51389300302483
C           -1.81415316223480        1.89142402676959        1.86244567165353
C           -1.11606891672243        2.55198741641664        0.82798507701090
C           -1.48151627005330        3.84325206233053        0.46811224879078
O           -0.12863205587361        1.88862583454248        0.23280886171722
O           -1.44132749717525        0.63969313256898        2.15443733458538
H           -2.82489904173998        5.47198476519086        0.81301268657710
H           -4.04952048983474        4.31144220475197        2.61789289290736
H           -3.39148918978130        2.04012829596008        3.30224983870848
H           -0.94463513025743        4.33864976968084       -0.32597361265639
C           -3.06858678539690       -3.82646422972852       -0.72929842501226
C           -2.20558174895386       -4.57789792130972        0.05035601862039
C           -1.18191617053959       -3.95683963940744        0.75776569803673
C           -1.02210773511678       -2.57666483803848        0.67977610983798
C           -1.85166826262260       -1.81178250015458       -0.18909287259725
C           -2.89155514385700       -2.45428067939035       -0.86128058503750
O           -1.57737303126816       -0.52799854698193       -0.31707325855842
O           -0.12190143269044       -1.90840786471587        1.39620718644622
H           -3.89629787262234       -4.31440831672669       -1.22665568124630
H           -2.33480067448962       -5.64616958575482        0.13642028520716
H           -0.53145772314009       -4.53409391911433        1.39631383028570
H           -3.55235423055568       -1.86927575990908       -1.47819550964785
O            1.78803325921407        2.70560103384316        5.28597795027301
H            1.45902805306762        1.77538021772176        5.20306709312624
H            1.12662374562489        3.21524982430619        5.79363006198871
O           -1.55333481264904       -0.12753272658797        4.64010705393560
H           -1.48922447001601       -1.08886674346047        4.46152366407062
H           -1.56285289613828        0.26821290370560        3.73223194264353
O            2.37064154001863        5.49168703895654        4.53470722530891
H            2.49698152045429        4.55709248631432        4.74116281321526
H            1.70240056682925        5.50905314031102        3.81447549295758
O            1.08148525165897        0.25533369229761        4.65296133539333
H            1.20906829518879        0.22572438096276        3.67584104102818
H            0.11982107773606        0.10776589402357        4.78515414340935
O           -3.77514540175714       -0.53232321106307        1.68848646108894
H           -2.88726717408996       -0.19589649653259        1.95370368399258
H           -3.95181798231224       -0.02786262781853        0.86980359051145
O            1.70374454162781        2.88821144295524        2.60410568022970
H            1.50158017901437        1.98548530294467        2.26845958022798
H            1.66934254907702        2.81357242120194        3.58018083999670
O           -1.35316517890918       -2.65699866555837        3.76167816700770
H           -0.78692397439504       -2.38450201185121        3.01445415111150
H           -2.23348342376552       -2.82745545792874        3.36672894686202
O            0.67898538570446        5.31183834179098        2.40727606754301
H            0.82945022430641        4.34355823753811        2.36883159738148
H            1.32717603305095        5.65471032509707        1.75316296047942
O            2.11115806365226       -3.28867836758398        1.43349861517046
H            1.23555858064057       -2.82132109127460        1.49650135175165
H            2.73379953869080       -2.58606780262546        1.21840053985315
O           -3.72952194230419       -3.07842566103899        2.46040067849518
H           -3.40639728754553       -3.56170633536188        1.69348256506399
H           -3.83751347406376       -2.14679818886317        2.17645542833287
O            2.58549963779582        5.84162155285728        0.61013203102570
H            2.55999685580755        4.98209992541951        0.16438409802376
H            3.34692697806081        5.81287472566819        1.23852906645276
O            0.34011595498416       -2.20064250382013       -2.10811697898403
H            0.73536789487869       -1.42092415016120       -1.62960463509073
H           -0.29512850742938       -2.55738224110668       -1.47817130823200
O           -3.74935723824397        0.92451309317710       -0.61972008578864
H           -2.85820703620162        0.49680552978156       -0.60427196400499
H           -4.20135945082957        0.56736247713049       -1.39226128211232
O            4.98098810757938        1.03648715053668       -1.91145002619556
H            5.01919425821551        1.86728929237513       -1.39419623238389
H            4.88466735096647        0.34485035211090       -1.24376791649291
O           -1.71288706151856       -1.97765287487216       -3.97831507403374
H           -1.02974175201161       -2.01639556744211       -3.28297269689912
H           -2.07527116188195       -1.06172379681041       -3.95449753543666
O            0.79770622362838        5.14015971939328       -2.33257895487880
H            1.25374961610781        4.49917135624718       -1.73817295925856
H            0.56520298768974        5.89919764192202       -1.76940964533419
O            4.36075351390343       -3.66679417021886       -3.31602068717931
H            4.82617620608561       -2.81343292179441       -3.42643575944102
H            3.86147503709892       -3.60754216580737       -2.48757941349106
O           -5.01899617207990       -0.58431220161699       -2.88530419380907
H           -4.93847100105174       -1.46929951825782       -3.28338909066024
H           -4.31438744176190       -0.07249623347510       -3.31951270939710
O            2.30046960343596        1.40030879917969       -2.36314417469815
H            3.25894765514932        1.20582041115725       -2.34987963095047
H            1.87356501703181        0.73761537673480       -1.78511822446944
O            0.24864689069239       -1.94003229617856       -5.81580901689717
H            0.89152282544937       -2.60237962301892       -5.50783280181970
H           -0.57502091471517       -2.12798340166050       -5.32939940522190
O           -0.74201640375586        1.27740050954238       -2.29843878235823
H           -0.51348853410996        1.32950962762788       -1.35277530119485
H           -0.79953942696241        2.20151777791092       -2.60899561448941
O            2.65918686880509       -1.17842502814217       -3.57610796831829
H            2.25696039751419       -2.01292294103815       -3.85234852869353
H            1.97955898499558       -0.49113411417410       -3.69144792787382
O            0.60012932987454        0.38741079030383       -4.43106940881793
H            0.35485684026503       -0.43941862409755       -4.88829385609467
H            0.14295684971699        0.46829533226214       -3.57196427569650
O            4.40842374942816        1.71545913303007        5.10059482647228
H            4.23557505617067        0.77397006747978        5.28779821006242
H            3.57256590540300        2.15446367148555        5.31774064535411
O           -4.07956386865314       -0.26052464753741        5.72057034075219
H           -3.18657612713393       -0.05648317431859        5.38249246849933
H           -4.69323132055327        0.00995896935284        5.02252231544996
O            0.25738900878339        4.69608150587157        6.31768104565386
H            0.96270068771810        5.28196203115678        6.00987373819389
H           -0.46341441478106        4.82459620258719        5.66966616534430
O            3.42356662498622       -0.83623944641992        5.57743246101552
H            3.52887281253743       -1.66278646185972        5.08214242195762
H            2.52681157809621       -0.52637687954185        5.35481396905319
O           -5.55933910153887        0.56559112183980        3.42779228623008
H           -4.92023833385607        0.05934782377615        2.89263938394246
H           -5.93935690256935        1.18136892816983        2.78411746769712
O            4.39571947685607        2.92225244293110        2.61332214825984
H            4.58900108217798        2.45273578830541        3.44521924120344
H            3.41731139783473        2.88310193426121        2.52301878689119
O           -3.27002779126991       -2.83629671541177        6.17979536301843
H           -3.67312745970191       -1.94996360694215        6.07323846829126
H           -2.44349691322359       -2.80192280125907        5.68736855393776
O           -1.39767906688457        5.19807790347096        4.21354978838264
H           -0.72244124075977        5.36670972325367        3.53614726039139
H           -1.97206309750557        4.52307673206826        3.83345517771390
O            3.68733849974757       -3.01993191975698        3.77020745872550
H            4.26004192779343       -2.47452318643880        3.22119739357380
H            2.96331037424329       -3.29666915095038        3.18562959323541
O           -4.32451477516647       -4.80771257600892        4.60606178873248
H           -4.33319545544822       -4.25991105935853        3.80920916988780
H           -4.05094006283544       -4.18657691259028        5.30998595413299
O            4.36345727646203        5.63494975662846        2.59034745144612
H            4.54639883228868        4.67297323098060        2.56734922760086
H            3.76732052705989        5.75230053442754        3.35103614005304
O            2.33162195973409       -3.87078416884586       -1.26859616373923
H            2.25069729149328       -3.83116081918359       -0.29778573802754
H            1.72246275885162       -3.18989251717433       -1.62213922406306
O           -6.10749555061907        1.74987073295222        0.90326638318528
H           -5.20923894793252        1.89336401464551        0.58130619896382
H           -6.38992129138582        0.92341150596251        0.47583683450672
O            4.62982335150194        3.02406194283741       -0.13375054645172
H            3.67713931764056        3.15992988590941       -0.26307727709615
H            4.74293782097161        2.88777507348750        0.81908563923941
O           -1.68315275115171       -5.58861439510429        4.03291341081448
H           -1.33527043410694       -4.68878014691938        4.00257849056484
H           -2.62420476240260       -5.48346314991577        4.25844093043359
O            0.24956645416881        6.93576833213273       -0.31180226318613
H            1.17629833761380        6.81488982947937       -0.04486540444635
H           -0.26342092493466        6.47139923074522        0.35785255868586
O            3.92958294168196       -6.48519577852469       -3.70109286102869
H            2.99980887363950       -6.42469746211256       -3.45411977130648
H            4.26845607305050       -5.58355344835571       -3.61308792931120
O           -6.36412850836342       -0.75105138220643       -0.39345085220089
H           -5.98785852703198       -0.67070838284610       -1.28439684461754
H           -5.69033074645726       -1.16800549979333        0.15099070343157
O            1.89161197603484        3.34611005016366       -0.66983546400200
H            2.08945547186789        2.69848001287410       -1.39511572841307
H            1.15392163893481        2.89202129980008       -0.19224916678459
O            1.20240820026316       -5.70987732692043       -2.80051258971185
H            1.69048848854875       -5.13112170201406       -2.16482232709610
H            0.30056089512075       -5.74553230716900       -2.47541388830804
O           -1.27265706741744        3.78787036531297       -3.20261073319794
H           -1.96189691225600        4.02065957662642       -2.57818544673153
H           -0.47728588433467        4.33055030186718       -2.96490902446202
O            5.67835300931829       -1.23202946098747       -3.71684750503700
H            5.32082433352724       -0.93962094322999       -4.56741523553119
H            5.48073323070174       -0.49834872047002       -3.12049294830137
O           -4.21728741641156       -3.04055614187263       -3.90548303222896
H           -3.30579529351380       -2.71007411921820       -4.04284649201919
H           -4.15309415740205       -3.61402380732602       -3.13934108081954
O            2.43642003139849        5.16982830836244       -4.74090306313444
H            2.62179345048635        4.23338389901182       -4.89705419005524
H            1.89695977108371        5.19453147286904       -3.94000613770995
O            1.98290682355605       -3.73151675096336       -4.64030830099675
H            2.92878947124817       -3.76084726571858       -4.39156071914899
H            1.57295540641099       -4.44726572722401       -4.13079961774459
O           -2.71612568363386        0.49901526621240       -3.84805130928597
H           -2.14855941137495        0.74801374108005       -3.08355550050475
H           -2.37697501439546        1.04805557423657       -4.58348453837007
O            2.72845940622878        2.31352161025002       -5.03772943542439
H            3.32338978066438        1.58062857133141       -5.29436588969404
H            2.31894484970106        2.01364401051389       -4.21222493916414
O            1.99347436998633       -0.42909233010350       -7.53878183267322
H            1.34714063353408       -0.94882953754585       -7.04329235510734
H            1.65696062171547        0.49160737586930       -7.52248818729696
O           -1.19654058509811        2.08178214981518       -5.46168135441675
H           -1.20412977364758        2.84293608530983       -4.86571499972433
H           -0.44724771030457        1.52309909128562       -5.14620499539130
O            3.95466781813472       -0.07247336128885       -5.67311190892613
H            3.37131776267999       -0.24984891272341       -6.43857611386852
H            3.49885258904257       -0.49287227007211       -4.91216465919610
O            1.09491770334527        2.13404893988690       -7.22733635620186
H            1.69401744690512        2.30304975869677       -6.46959872402012
H            0.20364313874979        2.18693743347974       -6.85851527220770
