%chk=deferipronate_solvated_1_Reduced_Structure.chk
#p B3LYP empiricaldispersion=gd3 scrf=(cpcm,solvent=water) scf=(maxcycles=500,xqc,maxconventional=1000) 6-31+G(2df,p)

Reduced_Structure

-1 1
C          0.68317        3.93420        0.76402
C          0.34206        2.68797        0.22197
C         -0.50781        2.64855       -0.98363
O         -0.82141        1.52340       -1.46342
C         -0.91803        3.89615       -1.53144
C         -0.53904        5.08182       -0.94727
N          0.23701        5.11456        0.16429
C          0.54842        6.39584        0.77694
O          0.72610        1.56782        0.71874
H         -1.53618        3.90748       -2.42232
H         -0.84251        6.04479       -1.34184
H          1.62610        6.50845        0.93159
H          0.20894        7.20109        0.12017
H          0.05089        6.50352        1.74921
Fe        -0.00083       -0.01109       -0.36252
C         -3.76778       -1.36876        0.76390
C         -2.50950       -1.05773        0.23184
C         -2.04680       -1.78689       -0.96409
O         -0.91779       -1.49498       -1.44895
C         -2.91633       -2.77753       -1.49870
C         -4.13966       -3.02728       -0.92316
N         -4.56700       -2.34786        0.16912
C         -5.84924       -2.68972        0.76234
O         -1.73087       -0.16408        0.72472
H         -2.60946       -3.33472       -2.37628
H         -4.81976       -3.77654       -1.31083
H         -6.47436       -1.79945        0.88921
H         -6.37371       -3.39068        0.10614
H         -5.72079       -3.16053        1.74628
C          3.08467       -2.55783        0.76272
C          2.17158       -1.64174        0.22423
C          2.55859       -0.88140       -0.97933
O          1.73038       -0.06078       -1.46470
C          3.85094       -1.12992       -1.51966
C          4.69707       -2.04068       -0.93205
N          4.33816       -2.73941        0.17331
C          5.29446       -3.65091        0.78250
O          1.00659       -1.42485        0.71858
H          4.16870       -0.59194       -2.40601
H          5.68940       -2.24202       -1.31829
H          4.88491       -4.66269        0.86242
H          6.19453       -3.69152        0.16693
H          5.57572       -3.31693        1.78775
C         -4.28100       -0.63984        1.96977
H         -3.48140        0.01843        2.31116
H         -5.16085       -0.01655        1.75419
H         -4.55213       -1.30956        2.79528
C          1.53535        4.01619        1.99577
H          1.03294        4.52084        2.83301
H          1.75653        2.99202        2.29995
H          2.49140        4.53545        1.82960
C          2.72322       -3.36325        1.97490
H          3.38755       -3.17927        2.82940
H          1.71307       -3.07123        2.26309
H          2.72496       -4.44678        1.78956
O 2.395175964189808 0.0045750909090911925 8.692939375388079
H 3.295175964189808 0.0045750909090911925 8.692939375388079
H 2.102164625178367 0.8555418089484763 8.692939375388079
O -3.0005242061623916 -2.743304245131896 8.02189711262976
H -2.1005242061623917 -2.743304245131896 8.02189711262976
H -3.2935355451738326 -1.8923375270925107 8.02189711262976
O 0.4487449230445614 5.128322611288143 7.350854849871441
H 1.3487449230445614 5.128322611288143 7.350854849871441
H 0.15573358403312038 5.9792893293275275 7.350854849871441
O 3.622274078177279 -4.721245440319376 6.679812587113123
H 4.522274078177279 -4.721245440319376 6.679812587113123
H 3.329262739165838 -3.8702787222799913 6.679812587113123
O -6.500503462268176 1.1542591488573013 6.008770324354804
H -5.6005034622681755 1.1542591488573013 6.008770324354804
H -6.793514801279617 2.0052258668966862 6.008770324354804
O 6.011154555225589 3.8289674622625043 5.337728061596485
H 6.91115455522559 3.8289674622625043 5.337728061596485
H 5.718143216214148 4.679934180301889 5.337728061596485
O -1.962186783770701 -7.291224030117454 4.666685798838166
H -1.0621867837707009 -7.291224030117454 4.666685798838166
H -2.255198122782142 -6.440257312078069 4.666685798838166
O -3.644096357541762 7.019281423116908 3.995643536079847
H -2.7440963575417623 7.019281423116908 3.995643536079847
H -3.9371076965532033 7.870248141156293 3.995643536079847
O 7.686706815313375 -2.8029354193300096 3.324601273321527
H 8.586706815313375 -2.8029354193300096 3.324601273321527
H 7.393695476301934 -1.9519687012906244 3.324601273321527
O -7.766756441454225 -3.2010475749110068 2.65355901056321
H -6.866756441454225 -3.2010475749110068 2.65355901056321
H -8.059767780465666 -2.350080856871622 2.65355901056321
O 3.6275033671732206 7.758314007882663 1.9825167478048882
H 4.527503367173221 7.758314007882663 1.9825167478048882
H 3.3344920281617796 8.609280725922048 1.9825167478048882
O 2.592455461252181 -8.26352786995259 1.3114744850465714
H 3.492455461252181 -8.26352786995259 1.3114744850465714
H 2.29944412224074 -7.412561151913205 1.3114744850465714
O -7.543052231376307 4.375392459020649 0.6404322222882513
H -6.6430522313763065 4.375392459020649 0.6404322222882513
H -7.836063570387748 5.226359177060034 0.6404322222882513
O 8.512851026556605 1.8763046874534044 -0.030610040470068045
H 9.412851026556606 1.8763046874534044 -0.030610040470068045
H 8.219839687545164 2.7272714054927896 -0.030610040470068045
O -4.984583947199567 -7.084168090178811 -0.7016523032283883
H -4.084583947199567 -7.084168090178811 -0.7016523032283883
H -5.2775952862110085 -6.233201372139426 -0.7016523032283883
O -1.1010684149935637 8.494312209164356 -1.3726945659867051
H -0.20106841499356365 8.494312209164356 -1.3726945659867051
H -1.3940797540050047 9.345278927203742 -1.3726945659867051
O 6.423227258928783 -5.409706544430184 -2.0437368287450246
H 7.3232272589287835 -5.409706544430184 -2.0437368287450246
H 6.130215919917342 -4.558739826390799 -2.0437368287450246
O -8.178175358286444 -0.3335799180873473 -2.714779091503346
H -7.278175358286443 -0.3335799180873473 -2.714779091503346
H -8.471186697297885 0.5173867999520378 -2.714779091503346
O 5.601914267282625 5.580147684137574 -3.3858213542616644
H 6.501914267282626 5.580147684137574 -3.3858213542616644
H 5.308902928271184 6.431114402176959 -3.3858213542616644
O -0.34989202920168583 -7.542176345946492 -4.056863617019984
H 0.5501079707983142 -7.542176345946492 -4.056863617019984
H -0.6429033682131269 -6.691209627907107 -4.056863617019984
O -4.566221550318905 5.475327113039175 -4.7279058797783
H -3.666221550318905 5.475327113039175 -4.7279058797783
H -4.859232889330346 6.32629383107856 -4.7279058797783
O 6.540607255039112 -0.8755787118793028 -5.398948142536622
H 7.4406072550391125 -0.8755787118793028 -5.398948142536622
H 6.247595916027671 -0.024611993839917634 -5.398948142536622
O -4.889061164740052 -3.3964633035825247 -6.069990405294942
H -3.989061164740052 -3.3964633035825247 -6.069990405294942
H -5.182072503751493 -2.5454965855431393 -6.069990405294942
O 1.1279654117493503 5.02260251630181 -6.7410326680532595
H 2.02796541174935 5.02260251630181 -6.7410326680532595
H 0.8349540727379092 5.873569234341195 -6.7410326680532595
O 2.0215964438637437 -3.524993079586843 -7.412074930811579
H 2.9215964438637436 -3.524993079586843 -7.412074930811579
H 1.7285851048523027 -2.674026361547458 -7.412074930811579
O -2.283671484359914 0.7328337416905107 -8.083117193569898
H -1.383671484359914 0.7328337416905107 -8.083117193569898
H -2.576682823371355 1.583800459729896 -8.083117193569898


