%chk=deferipronate_solvated_3_Oxidized_Structure.chk
#p B3LYP empiricaldispersion=gd3 scrf=(cpcm,solvent=water) scf=(maxcycles=500,xqc,maxconventional=1000) 6-31+G(2df,p)

Oxidized_Structure

0 2
C            0.68316999990798        3.93420000002446        0.76402000076702
C            0.34205999991022        2.68796999971773        0.22196999993292
C           -0.50781000027468        2.64854999804448       -0.98362999967842
O           -0.82140999997672        1.52340000026648       -1.46341999987263
C           -0.91802999988233        3.89615000433570       -1.53143999997649
C           -0.53904000019591        5.08181999456049       -0.94726999940182
N            0.23701000071730        5.11455999906783        0.16428999995542
C            0.54842000007764        6.39584000049020        0.77693999969129
O            0.72609999985743        1.56781999991503        0.71873999993480
H           -1.53617999975192        3.90748000023934       -2.42231999927142
H           -0.84251000019930        6.04478999926185       -1.34183999999395
H            1.62610000001908        6.50844999999909        0.93158999993079
H            0.20893999997084        7.20108999986521        0.12016999984064
H            0.05089000008130        6.50352000000063        1.74921000017227
Fe          -0.00082999995125       -0.01108999996620       -0.36251999994780
C           -3.76777999942236       -1.36876000102934        0.76389999948263
C           -2.50950000024115       -1.05772999949803        0.23184000142868
C           -2.04679999903633       -1.78689000010780       -0.96409000013935
O           -0.91779000020822       -1.49497999985645       -1.44894999996343
C           -2.91633000025607       -2.77752999985343       -1.49870000105421
C           -4.13966000248095       -3.02728000741785       -0.92316000155185
N           -4.56700000066445       -2.34786000000784        0.16911999902664
C           -5.84924000025943       -2.68972000044420        0.76233999879525
O           -1.73087000012709       -0.16408000006185        0.72472000008650
H           -2.60945999994455       -3.33472000032993       -2.37627999989332
H           -4.81975999962219       -3.77654000015272       -1.31082999991427
H           -6.47436000007431       -1.79944999987968        0.88920999927473
H           -6.37371000015850       -3.39068000000250        0.10613999951186
H           -5.72079000001550       -3.16053000127455        1.74628000008710
C            3.08466999941593       -2.55782999954273        0.76271999980784
C            2.17157999968128       -1.64173999939508        0.22423000074375
C            2.55859000114971       -0.88140000006433       -0.97933000004968
O            1.73037999952284       -0.06078000002330       -1.46469999988575
C            3.85094000044975       -1.12991999963664       -1.51965999910262
C            4.69707000008214       -2.04068000041878       -0.93205000099016
N            4.33816000020792       -2.73941000000934        0.17331000073515
C            5.29446000051970       -3.65091000025634        0.78249999859438
O            1.00658999998741       -1.42484999997723        0.71858000004190
H            4.16869999973558       -0.59194000013068       -2.40600999970329
H            5.68939999961410       -2.24201999987525       -1.31828999990029
H            4.88490999999625       -4.66269000005763        0.86241999999272
H            6.19453000027272       -3.69151999999998        0.16692999950174
H            5.57572000031890       -3.31693000034113        1.78774999960740
C           -4.28099999948468       -0.63983999955386        1.96977000001102
H           -3.48140000000529        0.01843000004489        2.31116000011997
H           -5.16084999968107       -0.01655000017122        1.75419000007785
H           -4.55212999983887       -1.30955999966367        2.79528000044555
C            1.53535000052587        4.01619000030852        1.99577000008069
H            1.03293999983633        4.52083999997250        2.83300999990464
H            1.75653000000562        2.99202000012575        2.29994999989413
H            2.49140000024616        4.53544999996561        1.82960000000995
C            2.72321999993452       -3.36325000020498        1.97489999955693
H            3.38754999992419       -3.17927000010354        2.82939999995928
H            1.71306999998011       -3.07122999994999        2.26308999994795
H            2.72495999996564       -4.44678000001817        1.78956000002671
O            4.80604768667645        0.96603823811506        6.38454128517609
H            4.32928848725074        0.83512087343609        5.55878208752446
H            4.65320584205335        0.18332745192738        6.92234041947224
O           -0.41426895777921       -0.53264259115066        5.88548433400544
H           -0.82865103120338       -1.32984078134000        5.54183454511390
H           -0.11973246556171       -0.03298872897116        5.11685310240877
O            2.85818900331114        5.46668476588409        7.83805870763104
H            3.66796933874113        5.12468390316130        8.23063776090094
H            2.89476261710288        5.26232155298483        6.89837206286418
O            2.15466854134695       -4.76287362404396        7.72401977079861
H            2.14695959706549       -4.87276274812042        6.76810007197450
H            1.23922024632743       -4.67316806503719        8.00765187334560
O           -5.72637191506015        0.91113871179026        7.22269462246545
H           -4.89166556287008        0.46707265028345        7.04277607226383
H           -6.18211965639351        1.00408759098884        6.37993638280644
O            7.71622000215498        5.58115181543892        5.19534643370391
H            8.38794880440932        5.56814023362888        4.50642645312666
H            7.17876877504189        4.79122124262319        5.07689629940384
O           -1.17141211132951       -6.92702354220853        3.94802814871474
H           -0.39564638203760       -7.38414579185230        3.60871447599410
H           -1.28937112903051       -6.14083443101658        3.40586746664347
O           -3.29525884806842        4.65977207276849        5.14093459248177
H           -3.00796823594636        3.94907875476998        4.55861766123973
H           -2.84827542375079        4.52875384881742        5.98307991455500
O            6.39325447286447       -3.19142381709784        4.03711898449402
H            6.34057334178084       -3.81650396218705        4.76707362736027
H            7.13612674714173       -2.60871467827105        4.22270102257256
O           -5.74184751531597       -3.51002378145158        4.21677516783170
H           -5.14005032895289       -4.11739706367387        4.65775110815038
H           -6.51721602437662       -3.44717394031286        4.79718390825403
O            3.95560682557394        6.77193437292309        1.84766718151361
H            4.79088666926347        6.78778575305211        1.37038510683869
H            4.07819874424326        7.30787913437839        2.63780200861280
O            3.57317233642021       -9.80617683713293        1.61970477515793
H            3.94670047700439       -9.70860793292140        0.73806862078154
H            2.70552295829116      -10.20859146790577        1.51327198505798
O           -5.92334101915524        4.94353960399230        0.05214764339336
H           -5.68497862580546        4.10018790746023       -0.34502007077101
H           -5.21274228742779        5.17299023117367        0.65932411830105
O            6.97474563808451        2.47034778566454        1.06507825666733
H            6.64645075133128        2.62677510825390        0.17483528033992
H            6.31729603110301        1.92385487511888        1.50720167956028
O           -5.28224162999375       -8.58022335121796        1.22606378158106
H           -4.37373172292731       -8.67240158218958        0.92335195556088
H           -5.32931276998929       -7.76202473098276        1.73177039461217
O           -0.69075183327847        8.75432345284379       -1.48351492592620
H           -0.09638702899550        9.19671516914446       -2.09786017155959
H           -1.40408261333502        9.37160240503731       -1.29141150729518
O            8.04142042016878       -3.73102022953839       -1.34677589160968
H            8.89305721602759       -3.40428759308377       -1.04015197772508
H            8.22294027344561       -4.45310905129857       -1.95686460220857
O           -5.73203971639204        1.17152637364079       -4.15401088908393
H           -4.82353159159152        1.17042630165880       -3.83623347654556
H           -6.06655228724535        0.27743499685095       -4.03563539932378
O            4.36838639333296        4.75333197514181       -3.38157934672616
H            3.78175996829399        4.01339531080132       -3.19435306489808
H            3.93453143754728        5.54338226164684       -3.04537861396328
O           -0.23010757796142       -7.64398210705520       -1.24316957394615
H            0.08035163412396       -6.75774361149114       -1.03236810457376
H           -0.85753358773809       -7.55457564752353       -1.96692933473334
O           -5.19018990015229        6.80691748618824       -4.83436987208150
H           -5.73213145770959        6.02808818840584       -4.67380644384542
H           -4.49188863965272        6.80376831569240       -4.17200022180127
O            7.45929961938225       -2.00437224668903       -6.56221371932569
H            6.94372842334763       -2.02029158651595       -5.74980085255111
H            7.67319175871370       -1.08399863280720       -6.74493701663144
O           -2.16046317142051       -1.65044606280321       -7.53713604021664
H           -1.40077071818411       -1.13812048897695       -7.83092754226986
H           -2.17889629505804       -1.59002681219923       -6.57646751196124
O            0.56780564835904        4.11310481335391       -7.54224651798676
H            0.75560367783383        3.17881417476730       -7.67711239076013
H            0.42493761990073        4.23196164858387       -6.59789606939355
O            1.78099387699608       -4.16344679662484       -5.43369749522186
H            2.11676902539952       -3.31396771434894       -5.73553826261807
H            1.31554344517521       -3.99415640739616       -4.60863689547123
O            0.44751859270536        0.70740702456501       -3.75182742742867
H            1.06920086626405        0.32560419092279       -3.10401869522448
H           -0.25568525013629        0.97649445821488       -3.13317816460631
O            1.01287188037252        0.32707903820408       10.78892529275130
H            1.47875610686119       -0.33842471448629       10.27241311300988
H            0.74865270016871        1.02173477149976       10.17708025514225
O           -3.22245402612186       -3.30374218094503        9.64163297424820
H           -2.57649268792950       -2.59137877414420        9.68397114529547
H           -4.02302534204092       -2.97920886779817       10.06531464442330
O            0.38306772299931        5.65081448701399        9.25963970505994
H            1.19986752056358        5.58302349819614        8.73796274382589
H            0.64896095915308        5.95906550580456       10.13049739861486
O            4.44501534324125       -3.94969606884380        9.21049178136285
H            4.48218939199367       -4.63256847787940        9.88666699193287
H            3.67928564913290       -4.17068426045265        8.65564483856731
O           -7.19186381604885        0.54037105236574        9.62567438475726
H           -6.66071116381902        0.65035839565243        8.81843257685180
H           -7.52039287948847        1.41739724890802        9.84344337324366
O            8.20699491336427        6.47736256529246        7.85447226346863
H            8.80660600988852        5.78569254490239        8.15054111727681
H            7.99716545971462        6.27019669601554        6.92835097273753
O            0.81061468096959       -9.76687042483698        8.03947136908547
H            1.43926444253466       -9.46488874610159        7.37584161889149
H           -0.01018955964443       -9.28802292059809        7.88675899017824
O           -1.08422077045666        9.44458743855264        5.34353959813231
H           -0.88518517349878        8.73825870381427        5.96623209203167
H           -1.91400252671533        9.21334528689566        4.91510276272144
O            9.42866361248093       -1.74757595299349        8.16507856744342
H           10.09363026226218       -1.97854562732104        8.82041696542772
H            8.57123303628212       -1.79812824478654        8.59983677551233
O           -7.84485037610265       -3.45055914595690        6.16688984610022
H           -7.64224812194931       -3.45923471927609        7.10808126950160
H           -8.68687313102510       -2.99666736288837        6.06482958319703
O            4.38957138224368       10.30602353698495        6.33261534907721
H            5.05194786414336        9.80306297836056        6.81686431230138
H            3.52810773803843        9.99648812124300        6.62961065169262
O            4.25568494592127       -8.06687147421942        3.78769574513876
H            4.91475321308713       -8.55684868645876        4.28842560220041
H            4.01113560598674       -8.63537382857870        3.03986251033489
O           -8.84713827647256        4.57994368410892        4.34886015840253
H           -7.96135789304005        4.89281971774253        4.55863051443706
H           -9.06005733660831        4.90935436836252        3.47014742612233
O           11.23336712652894        1.86855932074701        4.25379189429872
H           11.08700717413705        1.67535147833562        3.32233239586611
H           10.68650952128901        1.25662641266403        4.75681124369073
O           -7.09331648296319      -10.76358308438750        1.62086384839741
H           -6.42719105313652      -10.07344145768166        1.47019642554190
H           -7.94199894594805      -10.31044828725407        1.64159537566435
O            1.98376750605871       12.11179479428801        1.99862878889306
H            1.65786691691160       11.21200376602973        1.89307584341035
H            1.83989526964046       12.35282908332999        2.91880347982044
O            9.02777155657133       -7.68104500702682        1.69860955584295
H            8.77319518099531       -6.91374111419398        2.22111214726430
H            8.27088833751099       -7.90633098340779        1.14840204841307
O          -11.32968846911329       -0.29919437669184        3.24701703153482
H          -10.61894883380977       -0.50318872076930        2.63080758272732
H          -11.14736499435414        0.57378708895160        3.60901512495018
O            7.45952168155645       10.58402168078839        2.12695851422435
H            7.75135384540367       10.25827191761549        2.98433948205595
H            6.70050478614547       11.15397632632936        2.28792069840698
O            1.81003659789815      -12.29395863100829       -2.70063625524083
H            2.29055681070910      -11.60529391174905       -3.17129408579058
H            0.90994535666717      -11.97556382528800       -2.57911078257418
O           -5.97411560448789       10.48057277787711       -1.10514355021613
H           -6.11647756381839        9.57997602389811       -0.79640369505134
H           -6.29193004614235       10.51983397379184       -2.01264915294784
O           11.79255023750162        0.26903221065355       -1.16813623555063
H           12.53419591563142        0.60630557174309       -1.67973854429310
H           11.00764388232077        0.73979118935558       -1.46666545617344
O           -7.31834362916263       -4.71677159245829       -1.74404982769630
H           -7.57280866767895       -5.64422451460970       -1.70351871367725
H           -7.78348089622807       -4.33276876696565       -2.49390464485067
O            4.59780003628475       10.23469240733796       -2.51187826663160
H            5.39671163217839        9.90051431353780       -2.09199462516622
H            4.26260229698208       10.94190300647780       -1.95167555347957
O            5.01868701303464       -7.72780996412027       -3.51342763973855
H            4.96324633831810       -7.49712604366450       -4.44583374464525
H            4.53007935371713       -7.05299862625205       -3.03119378501629
O          -10.18235177994554        3.87226052898845       -4.51499778568748
H           -9.67312552362715        3.53354606251442       -5.25821405916712
H           -9.67092412859159        3.69147854735095       -3.71988262668265
O            9.40087321719299        3.05971645453210       -5.19843935452583
H            9.42324082571661        3.51605850140263       -6.04522840377246
H            8.61746711002173        3.37001845850458       -4.73320662368410
O           -2.73092436283530       -7.15174346368203       -6.34291346138688
H           -2.30135635192496       -7.49816140134238       -7.13115609463364
H           -2.41178698345464       -6.25136316571652       -6.22473930962337
O           -1.75679622468825        9.15585594319609       -8.48824442564375
H           -1.24891963908418        8.33855207152540       -8.50537590908600
H           -2.62889597016734        8.93735338424596       -8.14418926432647
O            7.26189286495884       -4.08371430428479       -8.50976731654307
H            8.04420135540877       -4.61817139574982       -8.34357023027207
H            7.29454986000456       -3.35767256003300       -7.86535017463988
O           -7.10096225622423       -3.28391481447402       -7.08936257090134
H           -6.34550539201437       -3.85835869914339       -6.92825952758070
H           -6.79261430033067       -2.56941690941479       -7.65552499951668
O            5.60122910131223        4.26011984035387       -8.81393222943210
H            5.27024241775883        4.39872038072590       -7.92067862976368
H            4.91776384354960        4.57177489680727       -9.41524201731492
O            0.76697997623890       -5.74412317715464      -10.26692040261169
H            1.60879810535297       -5.82053824563541       -9.80652723211029
H            0.35980279474160       -4.92381638506237       -9.96989522984360
O           -4.47529728111230        3.25981578617310       -9.04740917726304
H           -4.29417974004999        2.52048200158176       -8.45926561191688
H           -4.12647820621230        4.04876168427099       -8.62045619052530
O            3.03193441120575       -0.67589887059906       -9.62278427613189
H            3.51084324597496       -1.49482320070222       -9.78500659696376
H            3.68555995549344        0.02991199428926       -9.59882601159597
O 3.7427244534518516 0.17284656351526814 15.28875876917702
H 4.6427244534518515 0.17284656351526814 15.28875876917702
H 3.4497131144404105 1.0238132815546532 15.28875876917702
O -3.39969625699236 -3.4785357262257612 14.619571094320861
H -2.49969625699236 -3.4785357262257612 14.619571094320861
H -3.692707596003801 -2.6275690081863763 14.619571094320861
O 1.1892201744374007 7.04426372641156 13.9503834194647
H 2.0892201744374006 7.04426372641156 13.9503834194647
H 0.8962088354259596 7.895230444450945 13.9503834194647
O 5.493250361369774 -6.227567551700288 13.28119574460854
H 6.393250361369774 -6.227567551700288 13.28119574460854
H 5.200239022358333 -5.376600833660903 13.28119574460854
O -8.309762218856523 1.7464121575945768 12.61200806975238
H -7.409762218856523 1.7464121575945768 12.61200806975238
H -8.602773557867964 2.5973788756339617 12.61200806975238
O 8.908491095340946 5.466824424387383 11.942820394896218
H 9.808491095340946 5.466824424387383 11.942820394896218
H 8.615479756329504 6.317791142426768 11.942820394896218
O -2.1620182012141678 -10.05028587851431 11.273632720040059
H -1.2620182012141679 -10.05028587851431 11.273632720040059
H -2.455029540225609 -9.199319160474925 11.273632720040059
O -4.586411188914961 10.132341705721435 10.604445045183901
H -3.686411188914961 10.132341705721435 10.604445045183901
H -4.879422527926402 10.983308423760821 10.604445045183901
O 11.657966519455265 -3.8705548531866016 9.935257370327738
H 12.557966519455265 -3.8705548531866016 9.935257370327738
H 11.364955180443824 -3.0195881351472167 9.935257370327738
O -10.773302763731479 -4.516179695800337 9.266069695471577
H -9.873302763731479 -4.516179695800337 9.266069695471577
H -11.06631410274292 -3.6652129777609517 9.266069695471577
O 5.984512261179658 11.70878506446827 8.596882020615418
H 6.884512261179658 11.70878506446827 8.596882020615418
H 5.691500922168217 12.559751782507655 8.596882020615418
O 4.517168126458309 -12.359786917254594 7.927694345759261
H 5.417168126458309 -12.359786917254594 7.927694345759261
H 4.2241567874468675 -11.508820199215208 7.927694345759261
O -11.083717378444135 6.935786286638908 7.258506670903098
H -10.183717378444134 6.935786286638908 7.258506670903098
H -11.376728717455576 7.786753004678293 7.258506670903098
O 14.064019128152356 3.1359133354476962 6.589318996046938
H 14.964019128152357 3.1359133354476962 6.589318996046938
H 13.771007789140915 3.9868800534870816 6.589318996046938
O -7.507533874551011 -11.339617891024671 5.920131321190775
H -6.60753387455101 -11.339617891024671 5.920131321190775
H -7.800545213562452 -10.488651172985286 5.920131321190775
O -1.2527526154645205 14.363704794436336 5.250943646334616
H -0.3527526154645205 14.363704794436336 5.250943646334616
H -1.5457639544759616 15.214671512475721 5.250943646334616
O 11.68237715400981 -9.17904646255565 4.581755971478457
H 12.58237715400981 -9.17904646255565 4.581755971478457
H 11.389365814998369 -8.328079744516264 4.581755971478457
O -14.08153639768582 -0.4337092495146103 3.9125682966222968
H -13.18153639768582 -0.4337092495146103 3.9125682966222968
H -14.374547736697261 0.41725746852477485 3.9125682966222968
O 11.08881217679631 10.624375810121515 3.243380621766137
H 11.98881217679631 10.624375810121515 3.243380621766137
H 10.795800837784869 11.475342528160901 3.243380621766137
O -0.10310941519507721 -14.73351044041852 2.574192946909976
H 0.7968905848049228 -14.73351044041852 2.574192946909976
H -0.3961207542065182 -13.882543722379134 2.574192946909976
O -9.02262030622558 11.687391719073839 1.905005272053816
H -8.12262030622558 11.687391719073839 1.905005272053816
H -9.315631645237021 12.538358437113224 1.905005272053816
O 15.493684495485066 -1.8329380904067105 1.2358175971976553
H 16.393684495485065 -1.8329380904067105 1.2358175971976553
H 15.200673156473625 -0.9819713723673253 1.2358175971976553
O -11.773263838508505 -8.42652732532375 0.5666299223414945
H -10.873263838508505 -8.42652732532375 0.5666299223414945
H -12.066275177519946 -7.575560607284365 0.5666299223414945
O 3.8875771302614006 14.847921123530586 -0.10255775251466637
H 4.7875771302614005 14.847921123530586 -0.10255775251466637
H 3.5945657912499596 15.698887841569972 -0.10255775251466637
O 8.042454429407432 -12.83935960095642 -0.7717454273708236
H 8.942454429407432 -12.83935960095642 -0.7717454273708236
H 7.7494430903959906 -11.988392882917035 -0.7717454273708236
O -13.630180604893354 4.708250952240786 -1.4409331022269871
H -12.730180604893354 4.708250952240786 -1.4409331022269871
H -13.923191943904795 5.559217670280171 -1.4409331022269871
O 14.036803899588065 6.38737943017328 -2.110120777083148
H 14.936803899588066 6.38737943017328 -2.110120777083148
H 13.743792560576624 7.238346148212665 -2.110120777083148
O -5.081298782283759 -13.369286340965315 -2.7793084519393076
H -4.181298782283759 -13.369286340965315 -2.7793084519393076
H -5.3743101212952 -12.51831962292593 -2.7793084519393076
O -4.325278082285945 13.827930376379513 -3.448496126795468
H -3.425278082285945 13.827930376379513 -3.448496126795468
H -4.618289421297386 14.678897094418899 -3.448496126795468
O 13.252800429881194 -6.484378077408467 -4.117683801651627
H 14.152800429881195 -6.484378077408467 -4.117683801651627
H 12.959789090869753 -5.633411359369082 -4.117683801651627
O -13.021844931101363 -3.4141831607037507 -4.786871476507789
H -12.121844931101363 -3.4141831607037507 -4.786871476507789
H -13.314856270112804 -2.5632164426643653 -4.786871476507789
O 8.049578767446707 11.780158106797252 -5.456059151363947
H 8.949578767446708 11.780158106797252 -5.456059151363947
H 7.756567428435266 12.631124824836638 -5.456059151363947
O 2.870702870469866 -13.120181856627058 -6.125246826220109
H 3.770702870469866 -13.120181856627058 -6.125246826220109
H 2.577691531458425 -12.269215138587672 -6.125246826220109
O -9.798404176080204 8.215246436401031 -6.794434501076274
H -8.898404176080204 8.215246436401031 -6.794434501076274
H -10.091415515091645 9.066213154440417 -6.794434501076274
O 13.279245296182111 1.224441698428188 -7.463622175932433
H 14.179245296182112 1.224441698428188 -7.463622175932433
H 12.98623395717067 2.0754084164675732 -7.463622175932433
O -7.759175174229118 -8.84822974420739 -8.132809850788592
H -6.859175174229118 -8.84822974420739 -8.132809850788592
H -8.052186513240558 -7.997263026168006 -8.132809850788592
O 0.64367282934361 11.959721104472747 -8.80199752564475
H 1.5436728293436102 11.959721104472747 -8.80199752564475
H 0.35066149033216903 12.810687822512133 -8.80199752564475
O 8.126483395217917 -8.139245665162738 -9.471185200500914
H 9.026483395217918 -8.139245665162738 -9.471185200500914
H 7.833472056206476 -7.288278947123353 -9.471185200500914
O -9.954728788110138 1.1497749260639325 -10.140372875357075
H -9.054728788110138 1.1497749260639325 -10.140372875357075
H -10.24774012712158 2.000741644103318 -10.140372875357075
O 8.442978253141469 6.1358820109367675 -10.809560550213236
H 9.34297825314147 6.1358820109367675 -10.809560550213236
H 8.149966914130028 6.9868487289761525 -10.809560550213236
O -1.0307712013897885 -8.715306018966482 -11.478748225069394
H -0.13077120138978848 -8.715306018966482 -11.478748225069394
H -1.3237825404012296 -7.864339300927097 -11.478748225069394
O -3.7093077558642626 6.998794356825768 -12.147935899925557
H -2.8093077558642627 6.998794356825768 -12.147935899925557
H -4.002319094875704 7.849761074865153 -12.147935899925557
O 7.238694805803898 -1.6503339943087905 -12.817123574781712
H 8.138694805803897 -1.6503339943087905 -12.817123574781712
H 6.945683466792457 -0.7993672762694053 -12.817123574781712
O -4.223052489093408 -2.2951683009210093 -13.486311249637875
H -3.3230524890934077 -2.2951683009210093 -13.486311249637875
H -4.516063828104849 -1.4442015828816241 -13.486311249637875
O 1.6834430509984617 3.1325454595579463 -14.155498924494037
H 2.583443050998462 3.1325454595579463 -14.155498924494037
H 1.3904317119870206 3.9835121775973317 -14.155498924494037


