%chk=deferipronate_solvated_1_optimized_Reduced_Structure.chk
#p B3LYP empiricaldispersion=gd3 scrf=(cpcm,solvent=water) scf=(maxcycles=500,xqc,maxconventional=1000) 6-31+G(2df,p)

Reduced_Structure

-1 1
C            0.68316999992785        3.93419999996537        0.76402000002678
C            0.34205999981825        2.68796999983033        0.22197000019050
C           -0.50781000038403        2.64854999843356       -0.98362999943748
O           -0.82140999999013        1.52340000038416       -1.46341999996456
C           -0.91802999996101        3.89615000343484       -1.53144000002069
C           -0.53904000012262        5.08181999446525       -0.94726999977584
N            0.23701000062889        5.11455999908804        0.16429000036472
C            0.54842000016545        6.39584000048247        0.77693999926959
O            0.72610000000379        1.56781999989755        0.71873999997670
H           -1.53617999987861        3.90748000019698       -2.42231999942542
H           -0.84251000007696        6.04478999944833       -1.34183999997178
H            1.62610000007343        6.50844999999000        0.93158999995058
H            0.20894000004884        7.20108999987282        0.12016999999529
H            0.05089000009469        6.50351999998518        1.74921000025089
Fe          -0.00082999993399       -0.01108999994612       -0.36251999999689
C           -3.76777999950407       -1.36876000079889        0.76389999979605
C           -2.50950000015720       -1.05772999973385        0.23184000046774
C           -2.04679999964582       -1.78688999990958       -0.96408999942982
O           -0.91778999992838       -1.49497999993102       -1.44894999998700
C           -2.91633000038839       -2.77752999998277       -1.49870000001192
C           -4.13966000302171       -3.02728000859573       -0.92316000008125
N           -4.56700000036712       -2.34786000060900        0.16912000028825
C           -5.84923999991798       -2.68972000024816        0.76233999982197
O           -1.73087000009173       -0.16408000004678        0.72471999996486
H           -2.60946000009912       -3.33471999996297       -2.37627999978552
H           -4.81975999967147       -3.77654000007937       -1.31083000005899
H           -6.47436000002452       -1.79944999999159        0.88920999976891
H           -6.37370999996185       -3.39067999982859        0.10614000031195
H           -5.72078999997576       -3.16053000019857        1.74628000037749
C            3.08466999968334       -2.55782999967727        0.76271999977533
C            2.17157999973305       -1.64173999969176        0.22423000062622
C            2.55859000053185       -0.88140000019264       -0.97932999989274
O            1.73037999931921       -0.06078000036300       -1.46469999995719
C            3.85094000038931       -1.12991999990610       -1.51965999987557
C            4.69707000012719       -2.04068000046032       -0.93205000023124
N            4.33816000000708       -2.73940999978727        0.17331000058973
C            5.29446000018707       -3.65091000018420        0.78249999861728
O            1.00659000001304       -1.42484999999958        0.71858000002669
H            4.16869999966112       -0.59193999997557       -2.40600999962395
H            5.68939999993780       -2.24201999989973       -1.31829000002477
H            4.88491000000854       -4.66269000004772        0.86241999997891
H            6.19453000018940       -3.69151999999302        0.16693000006951
H            5.57572000009838       -3.31693000020420        1.78774999945671
C           -4.28099999968697       -0.63983999947986        1.96976999977620
H           -3.48139999988907        0.01843000002919        2.31116000018522
H           -5.16085000002130       -0.01655000001982        1.75418999993887
H           -4.55213000011890       -1.30955999977617        2.79528000004142
C            1.53535000053535        4.01619000014612        1.99577000003878
H            1.03294000002530        4.52083999996291        2.83300999995746
H            1.75653000000693        2.99201999999399        2.29994999998142
H            2.49140000010737        4.53544999985666        1.82960000000036
C            2.72321999993343       -3.36325000021111        1.97490000001648
H            3.38754999987859       -3.17927000007579        2.82939999986531
H            1.71307000005229       -3.07123000000158        2.26309000000771
H            2.72495999996518       -4.44678000007849        1.78956000002727
O            3.51501690477292        0.65671898236486        6.66016779798414
H            3.19049939704892        0.49477079319033        5.76789021834371
H            2.76899572186310        0.53473227588087        7.25526700796437
O           -1.14725537062784       -1.91971766343777        6.43250807878210
H           -1.55030437799006       -2.77761555218984        6.26434944799430
H           -0.97175545231435       -1.52398686643422        5.57158808885401
O            1.77576343087150        5.99740568443504        7.58977488392382
H            2.55729337553947        6.53986431758112        7.44647402180546
H            1.98870907596272        5.11327395936492        7.27460127293854
O            2.99394204390668       -5.04344287026129        7.70934210231737
H            2.64400385916148       -5.34144245705898        6.86356308899392
H            2.79808791693707       -4.10339904438530        7.77686253753543
O           -6.86357888396230        0.80185231721513        6.68254613464253
H           -5.92529312885284        0.61354691893422        6.78770247717789
H           -6.93553440475327        1.48681558022235        6.01040639615075
O            6.83775184213639        5.13088786882404        5.82465609673331
H            7.52697830654006        5.07746261082334        5.15526075993097
H            6.32779958311326        4.31664017636789        5.76259611248938
O           -1.85028136561253       -6.44534228534707        3.25294894934640
H           -0.96414189822005       -6.80494864877784        3.14651874630943
H           -1.91891184156889       -5.69167045282334        2.65745371407467
O           -3.25816211895808        4.38261437776654        5.44479809727544
H           -2.93469152259316        3.71226703483348        4.83378154123781
H           -2.48930946302423        4.74554893621327        5.89508948462232
O            6.28230349216170       -3.02196857094271        4.08084171063058
H            6.48602822381643       -3.69539710100063        4.73724286832330
H            6.65516986481141       -2.19531521891521        4.40120721613377
O           -6.22784777885610       -3.67646801555394        4.07291666328434
H           -5.77978654178074       -4.27384853147158        4.68014496569487
H           -7.01820585460548       -3.36272457998667        4.52326401010335
O            4.09054059161601        6.69644035833126        1.50231489607633
H            4.82084892968640        6.57342502277623        0.88766585007507
H            4.44749369991843        7.14514679493999        2.27549630749618
O            2.61114999264438       -9.89933186624179        2.21569912210338
H            2.94307305867153       -9.16472648923888        1.68987202466725
H            1.85525387196237      -10.26260467915341        1.74326089937114
O           -6.05673140615419        4.93876240892472        0.72003267471791
H           -5.35268408291936        4.35886656885561        0.41207785796734
H           -5.72692172506981        5.38121856243460        1.50817183503528
O            6.90853699363460        2.22605748693432        1.49528577275084
H            6.75133576952229        2.32883357256400        0.55203932600571
H            6.15196378653831        1.74606594641972        1.84603162105274
O           -5.45278838293820       -8.39668734484607       -0.05639477041900
H           -4.52148130318025       -8.31746799100898       -0.28661375789012
H           -5.57616484683598       -7.92283398093769        0.77239419080334
O           -0.82166216127085        8.64223384896001       -1.62591825861331
H           -0.30888867364079        9.02779541463101       -2.34334058732778
H           -1.62130357186342        9.17089926608209       -1.53733549277139
O            8.07008155948628       -3.49181434791628       -1.36935003698058
H            8.85588061585737       -2.95979537085673       -1.20993587346330
H            8.31810779883108       -4.17766932837432       -1.99735490487698
O           -5.95266290674810        1.42631071645071       -3.59511448875703
H           -4.99739280520811        1.32090296425247       -3.53152518292445
H           -6.31991620489597        1.10895264989534       -2.76477592520750
O            4.40673183298795        4.69649621082798       -3.35083017405371
H            4.02731002082148        3.91410245551754       -2.93723404387559
H            3.66924398676607        5.27558192174125       -3.56663158616356
O           -0.01772861020700       -7.52726161542153       -1.59722899822999
H            0.27630962506111       -6.65399261678920       -1.31785549834889
H           -0.38860558017357       -7.42562944065030       -2.47867578105136
O           -5.76849322739617        6.98982856234294       -4.05269804827512
H           -6.42459827536894        6.29321872027706       -3.95012708546758
H           -4.96316553844155        6.67423445348829       -3.63058242510202
O            7.40900574625814       -1.35994069431335       -6.29376039858274
H            6.86856438443411       -2.02076243126445       -5.84835250794482
H            6.95542698288765       -0.51733187720510       -6.19544304190854
O           -2.93934700508392       -1.83582137601869       -7.23607961658178
H           -2.19804737113619       -1.49051971419096       -6.72817709543545
H           -3.70751190158340       -1.80219355820117       -6.65777930874653
O            0.83930163407820        4.41954502377488       -7.36657252378685
H            1.36131139465357        3.61702967218653       -7.26880221986270
H            0.16093531025109        4.38874262333393       -6.68428103816636
O            1.96830244338266       -3.98423964995599       -5.66106443993013
H            2.11394928542519       -3.09858823613955       -6.00950113238180
H            1.49827058173543       -3.87112436384854       -4.82854610368824
O            0.47808350905338        0.75571770026068       -3.75851879154210
H            1.09125097218627        0.37014705731075       -3.10422154055622
H           -0.24148770951405        1.00846232100183       -3.15234812575970


