%chk=Fe_66H2O_OVWN5_3_6.chk
#p OVWN5 6-31+G(2df,p) scf=(maxcycles=500,xqc,maxconventional=50) scrf=(cpcm,solvent=water)

Fe_66H2O_3_6

3 6
Fe           0.17372932996354        0.14877514638889        0.16376097375454
O           -1.51155990324499       -0.57831537582123        1.42659460995820
O            1.34534345882529        1.55060824444354        1.39789719520272
O            2.12381487106988        0.04909629803529       -0.89652448396527
O           -0.32397943383540        0.42716017558102       -2.07357612701226
O           -1.14372862795695        1.98274103601155        0.13531344244542
O            1.19834855275644       -1.25214596878704        1.61405680057522
H           -2.07776485450833        1.82507076143904       -0.08260277267563
H           -0.80901183644732        2.63629731308253       -0.51029106064901
H            1.27426261991169       -1.01082641676078        2.55130109602867
H            2.09932126597868       -1.51403187698699        1.36318669911372
H           -1.82966991908465        0.11570421966392        2.02749271074086
H           -2.31905540429898       -1.08973914773871        1.21376031572177
H            2.90011622891382        0.62660586246109       -0.77823763281425
H            2.45240518259319       -0.84927156894348       -1.09209221661081
H            1.56008185947433        2.39804437282624        0.96658669791050
H            2.20432646127482        1.19712026742201        1.71871780678571
H           -1.28060618861424        0.28949346420032       -2.27286370199956
H            0.18074138507984       -0.09832851888500       -2.69597262166302
O           -2.57384654619289        1.64645321722090        2.50679722446659
O            3.81721117587723       -2.09693773076207        1.04198274940313
O           -2.91205097768271        0.05701395191159       -2.28973687907790
O           -0.13826990747365       -2.09780347118125       -0.57791028225503
O           -3.79628304164631        1.20302117608963        0.09103907317766
O           -2.65540145130888       -2.47289443604802       -1.45758084558663
O            2.27831161146346       -0.63924128560465        4.01097504518685
O            3.77304316033837        0.52934134031818        1.94420246540631
O            2.06892268038976        3.62303359440048       -0.18650556582594
O            0.04403604502148        3.15300855374905       -1.91737118408820
O            4.08765402373496        1.85038301431461       -0.38839861031575
O            2.52066217758198       -2.55640340220204       -1.22506531639665
H           -2.78041443428012       -1.61749445491693       -1.92539531519370
H           -3.01982286695261       -3.17473914289402       -2.01037494183568
H           -2.87645200989777        1.95751703400980        3.36717733436020
H           -1.83716544491873        2.19750167461629        2.21082635401278
H           -4.46732442105296        1.87622698811418       -0.08331419126838
H           -3.51313424278740        1.32680160342159        1.02053695479146
H           -0.40660148573235        3.71000043056341       -2.56577521372689
H            0.03114377945326        2.23527109390548       -2.24720412579693
H           -3.37063765917955        0.42284448569729       -3.06064679268132
H           -3.27707003025409        0.49302965070621       -1.50024916132437
H           -1.02892139064766       -2.31631841117521       -0.92121788150255
H           -0.05760466586916       -2.53401727865782        0.27516320700982
H            2.91033942161705       -3.01281127066891       -1.98710380178134
H            1.55612660224342       -2.67358204379698       -1.21888979789145
H            4.86918905241488        2.17264172851674       -0.85119373845222
H            3.43235131856943        2.58215182304894       -0.35643886251905
H            2.19015742690433        4.57786454407600       -0.12824043120534
H            1.40049279199706        3.47226922325056       -0.88632833028813
H            4.08286730036837        1.07869375433877        1.20029858670332
H            3.84818001481922       -0.38425868056138        1.61257714455948
H            2.05786614541319       -0.15552093714848        4.81969864463071
H            2.91071708303854       -0.09400177694733        3.51615658023554
H            3.60319485662173       -2.72552763773627        1.75319356255764
H            3.38677661658911       -2.41350717345322        0.21602157519576
O            1.60194120813962        0.68705367741778        6.35590742076406
H            1.92371401881256        0.29034767138732        7.17738527635630
H            0.67809063367642        0.91293407466457        6.49684155799168
O           -2.28911139161317       -2.72761705884365        6.06292902464418
H           -1.48063099647771       -3.03285286044221        5.63699838127109
H           -3.01329506098852       -2.92970996377814        5.46348369562615
O            0.68836333351772        5.85958293964017        5.06605328169007
H            1.01950880284146        5.09145685773214        4.58598631290727
H            0.97611650319701        5.74811897565803        5.98278861208761
O            2.92288128644432       -3.24959718718614        3.32812724491531
H            3.15396846461368       -3.81962950094636        4.06765546094415
H            2.68071401982677       -2.38147993699202        3.70839207159078
O           -4.13463208608768        2.23700104325104        4.79148024678333
H           -4.77907161533737        2.88373816434580        4.48862754511231
H           -4.59594522405651        1.39429997361138        4.86387776923053
O            6.38561623522473        5.63296056183299        3.29506156738595
H            6.30357238318199        5.09692411704107        4.09987855124238
H            5.90026499579456        5.15411945633993        2.61324100144161
O           -2.73257768156917       -6.77229185289529        2.49378162229475
H           -2.57085568598065       -5.96622725083306        1.98830780156551
H           -3.65316648480009       -7.00912036049503        2.35857415014984
O           -3.39900307496675        7.31697238625641        1.74830156897037
H           -2.71334114932429        6.64396205943703        1.83545882104830
H           -3.75102698638172        7.45745836678669        2.63851315636121
O            6.37390410775173       -2.44240731483424        0.28044312893143
H            6.88404237009562       -2.55635577391824        1.09184839914983
H            5.44396184334355       -2.26390385265334        0.57419026971579
O           -3.91781813649284       -1.49864161927985        0.69591426485616
H           -3.57143110530505       -1.97588922118392       -0.08954642598093
H           -4.05895625686894       -0.58043092786463        0.39756146787621
O            2.48206044217648        6.39528056114450       -0.39263735502833
H            2.97743784523209        6.75411696814519       -1.13224032807595
H            2.36432940503803        7.11741366144000        0.24219356354347
O            1.54585054713591       -7.58867625987052       -1.04811600495346
H            1.92864703072331       -7.62476002206445       -1.92830145877255
H            0.67839687657610       -7.17648184274185       -1.13117870131281
O           -5.51194255731586        3.30707265913137       -0.42441228555976
H           -5.30524174148108        4.00255248260558       -1.05444718467075
H           -6.25597987852146        3.61825014272819        0.10659812159738
O            6.44978694238340        2.88438429126238       -1.55335675685058
H            7.24420193323364        2.52893468577937       -1.12368200872763
H            6.63820192436639        3.80376369438702       -1.75543956120128
O           -3.65824630864549       -4.61855329683098       -2.98401035739525
H           -2.96424492328614       -5.24137870800230       -3.22141358282998
H           -4.12124687310535       -4.39999924828282       -3.80919064867391
O           -1.31767678579341        4.73757883089708       -3.75684372808596
H           -1.19943315713282        4.70503101774594       -4.70808717550797
H           -1.57124252483166        5.64599219793074       -3.53431788071680
O            4.01812831290315       -3.66584195903969       -3.21924753589440
H            4.75596503470225       -3.99677220063239       -2.67489058581008
H            4.41631730513148       -3.01031364710249       -3.81363886337186
O           -4.17647327888786        1.04766738845339       -4.51955014642689
H           -3.74198394897828        0.93964004319683       -5.38327204797331
H           -5.12074492797633        1.00989268674879       -4.67969631303752
O            3.26695374809003        3.14250733773821       -6.00709294049257
H            3.47057732737804        3.17728516384541       -5.06585074076653
H            3.13553029810133        4.05877349654355       -6.29130515860675
O           -0.11118765561260       -4.01467859302257       -6.62209615628541
H            0.64445888732884       -4.47377578583824       -7.01338687661948
H            0.25649358855817       -3.41350418853307       -5.96309373989098
O           -0.75843955616029        1.57139880053153       -8.11828699626830
H            0.08054530166882        1.36189959556883       -7.65878385548054
H           -0.58060153367982        2.33508851692775       -8.67107637668685
O            2.48509275681310       -0.70045551744613        8.67016881735082
H            3.21746993077474       -1.31547129106334        8.56528615966780
H            1.85649814080302       -1.10421491041377        9.27527955509295
O           -2.64570354926366       -2.06127589628247        8.77896148099274
H           -2.49549283944179       -2.20495670305347        7.82654813856177
H           -2.98450298542190       -2.89318102757211        9.11829508520649
O            1.48914882316795        5.49378996345402        7.80669297150546
H            0.84204561090831        5.09079983703517        8.39388533877127
H            1.95567340803985        6.16578199047579        8.31022397994136
O            3.41428273784692       -4.99025923901695        5.59203522661547
H            4.05931689385211       -5.70148999726819        5.57712253729640
H            2.59241169063218       -5.35698087664587        5.93241502171681
O           -3.37518176657360        3.18453862173572        7.35231090031828
H           -3.52434254880955        2.85169393262562        6.44683428784338
H           -3.44265690677624        2.42287852538633        7.93394511451441
O            5.92261525346037        3.99098061171766        5.59041578416768
H            5.94860469397847        4.35188788609141        6.47952403498791
H            5.22803899319486        3.32150687342173        5.57646337115662
O           -1.35335245365354       -7.65933398679918        4.80864290195231
H           -1.40438037081655       -8.61595500094758        4.74863867895053
H           -1.79941603184285       -7.31594746479457        4.01406707751623
O           -4.29115873627126        7.69495771234020        4.46445631456045
H           -3.75990470340500        7.36156892604557        5.19561008712080
H           -4.74802030774384        8.47864390026943        4.77907785058077
O            7.62622925100656       -2.77208840146904        2.86423654444724
H            7.68219719763133       -3.63875162809691        3.27467495391335
H            7.50108940938076       -2.12850187493961        3.56932457453113
O           -6.08008547410918       -2.29413102109322        2.16734470343422
H           -5.28717404364383       -2.00889632111775        1.65475227854240
H           -6.28782034173422       -3.17687879314379        1.85539026254091
O            2.22883918015133        8.55679982551711        1.40964728421455
H            2.87071273231078        8.63420277640499        2.12153752560219
H            1.37953708010760        8.84548786701601        1.75708373560713
O            3.05249297928925       -7.93225804729584        1.35009620350911
H            2.35615516528469       -7.97469677660769        2.01232124792121
H            2.59569443035597       -7.82398134499237        0.49968272508080
O           -7.71030750597388        4.40897266239487        1.03341918421269
H           -7.64724460381315        5.23983204588582        1.51365879855404
H           -8.63969719622197        4.24708954378320        0.85309872437767
O            8.70394465466343        1.89709113498806       -0.19520177500428
H            9.17374743668494        1.11587484672252       -0.50016314093892
H            8.61771301813218        1.82174168634378        0.76094548362266
O           -5.68599096676939       -6.02575402121294       -1.65634465355170
H           -6.00845193346969       -6.59612554992300       -2.35695675018104
H           -4.97677156906142       -5.47920631777677       -2.05257572817626
O           -1.99903986879011        7.38389968938352       -3.07411820345243
H           -1.43160568591669        7.81169128690598       -2.42520643798298
H           -2.90469446705712        7.62829723849559       -2.86435329706632
O            6.10550929249575       -4.41420226917254       -1.55022686060314
H            6.06679949845113       -5.20722080361717       -1.01055771503802
H            6.25975148307352       -3.66848427365936       -0.92369036382733
O           -8.49027073026565       -1.09660025386805       -2.35749585615437
H           -8.38006860058105       -1.99127942942457       -2.02091799036086
H           -8.21208112853351       -0.49859514149006       -1.65491136277685
O            6.83685740636114        8.20699390476565       -3.37415118067007
H            7.66227621170422        8.27705125528861       -3.86154737420216
H            6.94913812135388        8.69627270369780       -2.55334910457080
O           -1.20574351010666       -9.08763633574459       -5.10266814070465
H           -1.27412046518075      -10.01907860690197       -5.32627650751715
H           -1.09493076558282       -8.60183918187800       -5.92627494312655
O           -6.54262666177550        5.77792684620035       -5.30056781987476
H           -5.75036470491140        5.44528461116816       -5.73627572998385
H           -7.27990930604352        5.62287763119220       -5.89654557085434
O            5.49330895913073       -1.74697417536846       -4.71594304523674
H            6.37725203370747       -2.04222105856576       -4.94305031713040
H            5.58162712537690       -0.88744379407235       -4.28799999964742
O           -5.04100808595557       -4.18236770548215       -5.37031933207324
H           -4.78582328550319       -4.50115548691733       -6.23976307073406
H           -5.77105085388352       -3.56740044583943       -5.48520934416744
O            2.98867351767188        5.88348170783844       -6.71315162742768
H            3.40815592318402        6.58053043689352       -6.19911354461024
H            2.88461108946604        6.20987994401181       -7.61013873305817
O            2.32888675982362       -5.26077484580927       -7.49264587536261
H            2.71615655497950       -5.98876836073804       -6.99683896489454
H            3.05606086307903       -4.74610857874431       -7.85528142901844
O           -3.08674787364090        0.54024764437399       -7.02178416916054
H           -2.30804372985949        1.00057017737615       -7.38067100133991
H           -2.96100962542975       -0.38529894654705       -7.24993437707424
O            1.68568720227162        1.09338483616786       -6.95830675855633
H            2.20685240554648        1.84103690139575       -6.60681447216743
H            2.31817976033976        0.48616385288069       -7.34886654797730



