%chk=Fe_66H2O_wB97X-D_2_5.chk
#p wB97XD 6-31+G(2df,p) scf=(maxcycles=500,xqc,maxconventional=50) scrf=(cpcm,solvent=water)

Fe_66H2O_2_5

2 5
Fe           0.01504744917184        0.06458781433938        0.20979123173038
O           -1.91342389270397       -0.83784445132586        1.49060121959936
O            1.42562278115652        1.57865303008249        1.47714254170208
O            1.96658154199391       -0.10657759162924       -1.30273811349191
O           -0.44160218614388        0.86634158004533       -2.12634871973943
O           -1.50745819643786        2.02625476039725        0.37919333835859
O            0.93544123537904       -1.28865207852394        2.03059770943746
H           -2.24892740528262        1.79403890200303       -0.19372830245219
H           -1.02785831680524        2.73795733962102       -0.07771504318640
H            1.23974970990426       -0.71158027339248        2.73834817699795
H            1.43270447319232       -2.10259103743322        2.13495442285241
H           -2.29025894667781       -0.13482870968563        2.03118713504447
H           -2.68356493137881       -1.26786919828508        1.07958084234658
H            2.72130816920231        0.47161995869812       -1.12145787405277
H            2.28074713672665       -1.02126559799384       -1.22003007402930
H            1.67173575450444        2.39470631987921        1.02044387479551
H            2.26348416395889        1.11120514107350        1.63291449500390
H           -1.28043141418649        0.48520989200884       -2.44920613302452
H            0.28385722019026        0.44430771079526       -2.59273773549018
O           -3.30720001524717        1.43459129415024        2.28648579104730
O            3.99277943168224       -2.33664753038104        1.14419403115304
O           -2.87383033493968       -0.16098000104854       -2.56086492345392
O           -0.39180210500835       -2.35238453297689       -0.37164950487253
O           -4.11821482544164        0.89838841591438       -0.31152632449826
O           -2.68573443173959       -2.69575222320193       -1.75303587788314
O            2.63804148918152       -0.27354387249037        4.06591539985329
O            3.87680345081584        0.31694376724212        1.67275097481066
O            2.26442795506436        3.68116115003534       -0.13940713492688
O           -0.09110463608794        3.46467153483841       -1.41432992559823
O            3.99864904272662        1.66602680496723       -0.67819785677166
O            2.25074237384168       -2.75786833885580       -0.81953228283890
H           -2.71640731151673       -1.80427681982610       -2.17442736978805
H           -2.95122368862584       -3.34564050412096       -2.41663700178868
H           -3.68833406963819        1.91168223570244        3.02824073831668
H           -2.55183159465540        1.94036807731047        1.93287616928615
H           -4.81520159135469        1.53227655344763       -0.53175042395479
H           -3.90738884534800        1.03780127395235        0.63347075557920
H           -0.47494019578472        4.12700244447659       -2.00838710365403
H           -0.15388280926558        2.59100354504083       -1.85150829057406
H           -3.41166951310718       -0.00284988017610       -3.34986213379456
H           -3.34402770184142        0.23143952648181       -1.80274476802739
H           -1.17232909477603       -2.54849456618792       -0.92380119560820
H           -0.65239840232790       -2.53269652978203        0.53525104432472
H            2.44982726752983       -3.47124964288490       -1.44492299706468
H            1.28517508931540       -2.75077670378550       -0.66124428816205
H            4.83028964906762        2.00307073993825       -1.03863576279792
H            3.41629268928802        2.43992341264607       -0.52095896549414
H            2.52408030732957        4.60938235171755       -0.09562214006152
H            1.43154532119990        3.64327437643916       -0.66079906909157
H            4.04317720459566        0.79686546532749        0.83836860479948
H            3.93795998492543       -0.63300548772612        1.43648992785027
H            2.95858527721883        0.19258547717078        4.84992922798513
H            3.17018066458852        0.04846179984317        3.31608395463867
H            3.59587305271311       -2.66754800508963        1.97527677953991
H            3.31894260703508       -2.49854994071695        0.44277124569066
O            3.86069809294583        0.83353754901547        6.35641857038361
H            4.81940633491107        0.89807900647063        6.34940538031311
H            3.62101661682867        0.40547604646834        7.19438724294466
O           -2.01132937351017       -1.32256100321856        6.95324682981556
H           -1.27125621857838       -1.49697224317892        6.36081566224357
H           -2.80024239862782       -1.66613009101838        6.52409603621312
O            0.37738982855168        5.36832900455940        5.43583331578473
H            0.60291029653554        4.67261537634450        4.80729351326385
H            0.22035475516373        4.92021019533676        6.28064397814047
O            2.78058497083817       -2.94480711778168        3.48940168012693
H            3.11332402281840       -3.51882861011464        4.18926721700885
H            2.74890921876782       -2.03535658530397        3.85689615023690
O           -5.36621346490303        1.99934814682122        4.30006183909598
H           -6.10762302482021        2.49826825113234        3.94530542097929
H           -5.61072563025051        1.06950166629952        4.23730183435570
O            6.76462463609898        4.40764048048997        3.69812152930908
H            6.47444249617739        4.89420446175619        4.48415164426922
H            5.95898808076445        4.13466694518764        3.24400541974017
O           -1.85597469018463       -5.86267724107410        4.19418721671049
H           -1.04163116486549       -5.78936717467878        3.68519351018020
H           -2.49836989706705       -5.27503136819385        3.78183406759868
O           -2.15398790440913        7.54274786655045        1.07549352774467
H           -1.32540984383741        7.14054096857264        1.35716130338960
H           -2.74158794379581        7.52070014512296        1.84817525041767
O            6.11423221783381       -3.76772515803220        0.31925970270907
H            6.78092923711424       -3.69624244736598        1.01377423719519
H            5.35341828239268       -3.21006246737935        0.61617022677532
O           -4.18405980115961       -1.80191756519615        0.29694410846995
H           -3.73364533242783       -2.25178218407512       -0.44950969579731
H           -4.33998495767394       -0.88967394548764       -0.01052814498921
O            3.08030852158495        6.41539499767745       -0.24676126504766
H            3.50224894439441        6.82890844820729       -1.00389991461635
H            3.21078958054888        7.01435717293913        0.50465557619578
O            0.50354529446920       -8.03025823004608       -0.45616757914371
H            0.70067954315545       -8.42171861396640       -1.31118896293985
H           -0.06189041882467       -7.26644023907373       -0.61959945132662
O           -5.91966626453431        2.91846737553037       -1.01068245324653
H           -5.67503877673237        3.43368398810053       -1.78439278744078
H           -6.45728794499901        3.50520491618615       -0.46002970532694
O            6.49471818101855        2.68611158427840       -1.50507666575501
H            7.22096948481449        2.12871338525887       -1.17809831344697
H            6.75539512971557        3.59401394664883       -1.33056759256176
O           -3.39120042130859       -4.72523304773792       -3.59050680339327
H           -2.62627697634830       -5.20101868735685       -3.93040456616887
H           -3.92089178636896       -4.48452567188092       -4.36768725940836
O           -1.14329125254432        5.55169828716211       -2.93880655553440
H           -0.50737150316972        6.21437054947048       -3.21869713425950
H           -1.83935389324599        6.03069378957670       -2.45655137348617
O            3.04523664386782       -4.65927592926985       -2.67071502761785
H            3.96112871512719       -4.88081945250238       -2.42209924947439
H            3.07652905619435       -4.38797334356040       -3.59142349852096
O           -4.40354335308279        0.19339223171506       -4.86553991440241
H           -4.01549391222187        0.39504515944578       -5.73506594169772
H           -5.35536509141933        0.23310808410920       -4.97657283512539
O            2.96783767875057        3.70775912647326       -5.89662090642213
H            3.12209078347229        3.80547961314379       -4.95069938823286
H            2.76924698228138        4.59369048744683       -6.23701779303687
O            0.01564029050380       -3.29993429369707       -7.41142916909280
H            0.90787256967638       -3.43813968823560       -7.75900834085973
H            0.11020027438422       -2.70305942580209       -6.66015656816301
O           -1.28293416216274        2.53683462804645       -7.11242358308398
H           -0.36788940000656        2.19178690786600       -7.08378890738497
H           -1.37285887926909        3.09168947359285       -6.33122256333276
O            3.19626539483292       -0.51764880482971        8.73564614000229
H            2.85951023557906       -1.41371063208785        8.63115206975313
H            2.69078382971341       -0.10557053405811        9.44198761318646
O           -1.71542865994795       -1.47863219342389        9.74165322163265
H           -1.82281156228968       -1.32864137351868        8.78402095861243
H           -1.82215322830310       -2.42552315161891        9.87024861492428
O           -0.18143942008106        3.86325055515529        7.79674624354986
H           -0.32712553076613        2.91589897923058        7.69670414024054
H           -0.77209574182202        4.16757974068776        8.49021538311219
O            3.69295227249067       -4.78779526336270        5.48977255334302
H            4.41770194763974       -5.38926587786296        5.29861444522444
H            3.00587078504992       -5.29808138856044        5.92840374218433
O           -5.06848970453015        3.05252455344620        6.91437858123944
H           -5.07977197130637        2.67709411520359        6.01445577132143
H           -4.93223823765209        2.31254913030460        7.51257056993061
O            5.76600113127142        5.78202862980899        6.02075411550091
H            6.31534738880211        6.09145789588279        6.74538908047647
H            4.90661610557706        5.55299281783072        6.39125922784738
O           -1.50609302852842       -6.24338316774146        6.96323048012342
H           -1.82230510775536       -7.13220250937863        7.14106423761318
H           -1.63940380738253       -6.10002263169440        6.00791381840670
O           -3.59826725467408        7.37402635402174        3.49598671755961
H           -3.78296805428116        6.51252581571308        3.88536320936236
H           -3.37137622165083        7.96461727548585        4.21888872568164
O            7.93645068959097       -3.41657176732204        2.55324902567946
H            8.36057953607509       -4.12095374672669        3.04972870351266
H            7.74658849651654       -2.70297596429227        3.17175577350608
O           -6.14103273760685       -2.90820354485748        1.89754215580396
H           -5.43890979515758       -2.50518307440314        1.34216717954128
H           -6.28765407971904       -3.78661724312283        1.53986233077990
O            3.56629877095820        8.14955631858381        1.93608791214757
H            4.46745254158662        8.36304446338202        2.19440001231665
H            3.05784478095533        8.03788658846677        2.74586941168845
O            2.48015981212263       -8.04986974392217        1.60639789064088
H            2.89713324024607       -7.20800144822770        1.39172134343364
H            1.76578785738392       -8.15802281647530        0.95823318253224
O           -7.41315075875487        4.96691516362574        0.26745421144248
H           -6.94765484183397        5.74615292666903        0.58821319770897
H           -8.27319468813185        5.25447191073514       -0.04883082701977
O            8.50623024058738        1.13706151945502       -0.32107880498578
H            8.55687564394271        0.19555182546792       -0.51236704996327
H            8.54817618839831        1.23430345094150        0.63578787453792
O           -5.09042739241026       -6.47348813641997       -2.17772779652456
H           -4.56002463447681       -6.81919897005783       -1.45386798461146
H           -4.52190963658949       -5.83149393516691       -2.64566892082259
O           -2.93406128523402        7.16516402370717       -1.54890570380147
H           -3.26616713514182        8.02157958658441       -1.82649169149301
H           -2.68349067522710        7.26082077315406       -0.61007119547703
O            5.66738086056717       -5.19776734856152       -1.97011460754202
H            6.00580732645220       -6.07274396904391       -1.76670879637409
H            5.86289746707320       -4.64294815966632       -1.18838262645578
O           -8.72571240671344       -1.71581611310485       -2.58103224139196
H           -8.16117644623103       -2.48351996118563       -2.44101798158737
H           -8.54864450850267       -1.10562587195357       -1.85717083488473
O            6.83568432894330        7.26392512599041       -4.35565965591671
H            7.03233343435175        6.48199772925679       -4.88197792176038
H            7.67562041158951        7.62597989263023       -4.06021390168111
O           -0.05125988597929       -8.60263953903978       -5.89823261843864
H           -0.71156409489260       -9.14264079314512       -6.34120108693986
H            0.17367609379871       -7.88116492081885       -6.49474901664686
O           -5.96330321688668        5.54066651628816       -5.92563845436538
H           -5.86549652442321        4.69176491788488       -6.36883994101199
H           -5.07487892608160        5.86313686379027       -5.74114188050930
O            5.94625347161654       -0.93050471069013       -5.16852806722018
H            6.33861682308520       -1.22000128297304       -4.33912407295353
H            5.17793087342567       -0.39654899252244       -4.93682152477408
O           -4.84939810859745       -4.25836897227502       -5.94033614250303
H           -4.48723187079071       -4.08858054091817       -6.81474920735182
H           -5.80685206559534       -4.27012223380756       -6.01726296063815
O            2.34748790961324        6.27537811367889       -6.93360224826829
H            2.99710462314345        6.96724393039820       -7.08492745528699
H            1.65935580648801        6.37339530749769       -7.59835718908971
O            2.75085166249828       -3.67129249298998       -8.24956895176629
H            3.22510260916069       -4.50740373846863       -8.25881356980338
H            3.39299241917809       -2.97633735583648       -8.42443857643827
O           -3.39681911503042        0.81891672221931       -7.36966404728979
H           -2.65207767011169        1.45342730613486       -7.31566835948889
H           -3.15479641797125        0.18346645206042       -8.04756816250810
O            1.35345079275943        1.75295757230322       -6.97653200296133
H            1.92460731036931        2.42339429868976       -6.55202133412925
H            1.83808984143280        1.43541443158003       -7.74139845916182



