43
 energy: -86.322679437759 gnorm: 0.000604556435 xtb: 6.6.0 (conda-forge)
C            1.86448664831421       -1.51114322760606       -0.97124751007144
C            0.44366502152505       -1.50183185923809       -0.49608550304927
C           -0.27288382320299       -0.34209877649561       -0.24041114813820
C           -1.67282789426971       -0.49125998200324        0.21931533479729
O           -2.36260283599846        0.53194149675846        0.44977526119517
C           -2.15344695719982       -1.82804963831053        0.37483121666158
C           -1.34391708104276       -2.88119259187065        0.09694272241409
O           -0.08781584326625       -2.75868276716565       -0.32541496426519
O            0.20376712165134        0.83428297636649       -0.38515393216226
H            2.51227774396088       -2.03128693349818       -0.26400207160967
H            1.95216966709150       -2.00654656462710       -1.93953561397058
H            2.18314106362371       -0.47683535276832       -1.06193623807447
H           -3.16442336935536       -1.99349799024721        0.71347538291674
H           -1.64078809000748       -3.91560308033612        0.19155526216236
Fe          -1.33954001041281        2.27437427959974        0.15825088638514
C            1.14504692796063        6.34812557156401       -1.60137818394796
C            0.22478014865475        5.36731028847203       -2.26159179006667
C           -0.36927213846669        4.30489209556715       -1.59645794082004
C           -1.24955276561263        3.41150340890753       -2.38363614970316
O           -1.80921084063003        2.43880234644786       -1.82071784029109
C           -1.40112203105578        3.72594562039475       -3.76952281041385
C           -0.75987842686710        4.79772544273066       -4.30046836567164
O            0.03124486662786        5.60895219311593       -3.60178820345869
O           -0.20092832021695        4.06102780812459       -0.35368640173613
H            2.13308571411331        6.33299478917197       -2.06420217460873
H            0.75348590793700        7.36436124714120       -1.67036202808456
H            1.22951505211431        6.06117480659185       -0.55720703709220
H           -2.02907336769043        3.10547984108525       -4.38982584121993
H           -0.82925504307343        5.09428415232614       -5.33697854485648
C           -0.79957906050861        2.69515029465154        5.19514997050651
C           -1.80085324578162        3.26893162973339        4.23999477708669
C           -1.77916996490088        3.03441299587846        2.87317811835400
C           -2.83173138565588        3.67501266245879        2.05179816986115
O           -2.85323259808367        3.48314817333013        0.81146688624006
C           -3.77344547796885        4.49315372281105        2.74908455941167
C           -3.68185496906177        4.64404084123542        4.09467046018779
O           -2.74398537021368        4.06778851546979        4.84325758615450
O           -0.91001514766377        2.29968610106769        2.29273664093427
H           -0.26453626172944        3.48515664325401        5.72403017240093
H           -1.28226971917201        2.05729167114671        5.93703656289899
H           -0.09642411309056        2.10677295436624        4.61316772497345
H           -4.55845461377480        4.98815666770351        2.19879096555670
H           -4.35867860759427        5.24385074669083        4.68557205220166
