19
Fe_2_B3LYP.log	Energy: -1080634.4632475
Fe        -0.00009        0.00013       -0.00046
O         -1.13721        0.34145        1.75528
H         -1.28067        1.19596        2.18592
O          1.75905       -0.39992        1.15641
H          2.63619       -0.61931        0.81331
O         -0.52127       -2.08833        0.06498
H         -1.18737       -2.53071       -0.47877
O          1.13717       -0.34221       -1.75539
H          1.65060        0.31777       -2.24221
O         -1.76126        0.40093       -1.15340
H         -1.82483        0.39305       -2.11837
O          0.52374        2.08775       -0.06703
H          1.18995        2.52942        0.47717
H          0.13583        2.75944       -0.64443
H          1.81935       -0.39134        2.12158
H         -1.65005       -0.31923        2.24178
H         -2.63700        0.62106       -0.80719
H         -0.13170       -2.75974        0.64159
H          1.28028       -1.19718       -2.18522
