19
Coordinates from ORCA-job /home/hharb/C-STEEL/Fe_orca/all_calcs/orca_wB97M-V_2_5 E -1721.549032786167
  Fe         -0.78572180961880      0.71294017961614      0.03233255265087
  O          -1.33137910542231      2.75790305142667     -0.26295589649749
  H          -1.45635280430330      3.20477464884179     -1.10977868005766
  O           1.30122365068753      1.27121965026107      0.04731086363554
  H           2.05790991156894      0.67654848636115     -0.02883424921130
  O          -0.86199885588517      0.94234291280102      2.13843668110643
  H          -1.62518588977674      0.77182304559555      2.70527767657861
  O          -0.23835645778587     -1.33124648196443      0.32718719759135
  H          -0.06156787661810     -1.98094049993707     -0.36500443281851
  O          -2.87272342905404      0.14982377978382      0.02090244095519
  H          -3.22667897040704     -0.74367485455125     -0.07006700057461
  O          -0.70502369525716      0.48750139767868     -2.07474387669661
  H           0.05871809951989      0.66584099744706     -2.63833552128460
  H          -1.43634021526940      0.24116696923979     -2.65546403406278
  H           1.65860651531297      2.16493334714472      0.12172678546707
  H          -1.50443979409830      3.40873531622437      0.42911935758096
  H          -3.63142624711833      0.74191886028659      0.09663913708405
  H          -0.12724888825292      1.18529700876542      2.71629029884628
  H          -0.12353170822180     -1.78082804502115      1.17400610970721
