19
Coordinates from ORCA-job /home/hharb/C-STEEL/Fe_orca/all_calcs/orca_B3LYP-D3BJ_2_5 E -1721.512277001237
  Fe         -0.78332295796823      0.71195844574750      0.03281778822236
  O          -1.33974661297750      2.76947358860782     -0.26209330556844
  H          -1.45118390081794      3.22309030048643     -1.10837080348086
  O           1.29624021335043      1.28304469378080      0.06242239875281
  H           2.05768623179507      0.69305534101954     -0.01730153626499
  O          -0.86990498434233      0.93465443851506      2.14152735439727
  H          -1.63801755013704      0.77125393670486      2.70569644590966
  O          -0.22417144534927     -1.34509050689826      0.32493595034014
  H          -0.04282829853544     -1.99081787771600     -0.37112324103270
  O          -2.86679206990509      0.14745029940332      0.00215443633535
  H          -3.21997523045279     -0.74842181952988     -0.08124239575165
  O          -0.69854631603235      0.48884639335602     -2.07662291249344
  H           0.07096519177112      0.64874793677608     -2.64003422183336
  H          -1.43439785224095      0.25164911207187     -2.65755171221521
  H           1.64269651568700      2.18163818164851      0.14441330633127
  H          -1.53012985676057      3.41297242813433      0.43367382261697
  H          -3.62482618645954      0.74213420853688      0.07966154490612
  H          -0.13201981403010      1.17165872340737      2.71989466899277
  H          -0.12324264659445     -1.80121805405229      1.17118782183590
