19
Coordinates from ORCA-job /home/hharb/C-STEEL/Fe_orca/all_calcs/orca_wB97X-V_2_5 E -1721.470664999438
  Fe         -0.78481077866104      0.71241301911745      0.03381298552345
  O          -1.33102145572864      2.76531242358653     -0.26343022794811
  H          -1.44125108980413      3.20736343894317     -1.11471673693787
  O           1.29785047476213      1.26975950336350      0.04886810455222
  H           2.03898051368825      0.72309475914585      0.33834979566197
  O          -0.88758658173162      1.04388302564462      2.12489707240209
  H          -1.67062567596849      0.94886114962138      2.68221003665950
  O          -0.23141392064647     -1.33848545521543      0.32698138820679
  H          -0.04147167724539     -1.98671779172761     -0.36286262852405
  O          -2.86877810013840      0.15393969123717      0.01738899464310
  H          -3.60791317120121      0.70136030454208     -0.27569128456813
  O          -0.68305174002211      0.38369014839732     -2.06021498816851
  H           0.09991063863814      0.47964730381496     -2.61738729024493
  H          -1.39847638819561      0.06349565998013     -2.62442048664524
  H           1.66871768261484      2.11499553410026     -0.23387930388641
  H          -1.52548028249660      3.41707134267092      0.42181806178945
  H          -3.24136330767174     -0.69145678372312      0.29735023154591
  H          -0.17356995672568      1.36624499550033      2.68973239638943
  H          -0.13016275346619     -1.78839249899954      1.17523928954936
