19
Coordinates from ORCA-job /home/hharb/C-STEEL/Fe_orca/all_calcs/orca_wB97X-D4_2_5 E -1721.835743053824
  Fe         -0.78457441057610      0.71321173078181      0.03367205546472
  O          -1.33510334131665      2.77002177844165     -0.26443513383698
  H          -1.44354673216915      3.21236162727219     -1.11461720420030
  O           1.30324881298055      1.27253950146953      0.04931022033724
  H           2.04311208221203      0.72368361204348      0.33439963878526
  O          -0.88727799077028      1.04397407827840      2.13045823458638
  H          -1.66973041961869      0.94893718010871      2.68674763058920
  O          -0.23129990738460     -1.34245564446840      0.32827419103553
  H          -0.04009565440625     -1.99129307530379     -0.35925030606244
  O          -2.87346379775478      0.15236623276795      0.01567756059438
  H          -3.61237151916200      0.70109604317278     -0.27216133878139
  O          -0.68150940482601      0.38288420209821     -2.06531034874046
  H           0.10006966954184      0.47749920392765     -2.62292763265819
  H          -1.39658505432410      0.06366720835204     -2.62882477892964
  H           1.67354115864608      2.11789876670515     -0.23022877617988
  H          -1.52714746925638      3.42073003584189      0.42102914995766
  H          -3.24480691801773     -0.69387746694191      0.29113678127805
  H          -0.17261864462240      1.36315472453129      2.69446947184934
  H          -0.13135802917535     -1.79031996907868      1.17662599491154
