19
Coordinates from ORCA-job /home/hharb/C-STEEL/Fe_orca/all_calcs/orca_wB97X-D3BJ_2_5 E -1721.839395113692
  Fe         -0.78402625498627      0.71247797613180      0.03383469573403
  O          -1.33221177036455      2.76651318627175     -0.26599107950493
  H          -1.43917342346227      3.20882921602948     -1.11638535493261
  O           1.29861745592910      1.27223376051686      0.05215705059173
  H           2.03915272838750      0.72492926159818      0.33861694903792
  O          -0.88656354174838      1.04135235751674      2.12760425533090
  H          -1.66975364073433      0.94990725538674      2.68345701465333
  O          -0.23047973421377     -1.34111172129195      0.32599629325263
  H          -0.04177611343199     -1.98921242188642     -0.36287155714975
  O          -2.86901207087842      0.15410978025898      0.01707518363925
  H          -3.60784003135152      0.70160528395278     -0.27329868809765
  O          -0.68301405841985      0.38562863968999     -2.06323505460893
  H           0.09905182314688      0.48329645025356     -2.61949037600603
  H          -1.39730065168392      0.06028782176149     -2.62410806046282
  H           1.66721582787429      2.11706936064837     -0.23126284982904
  H          -1.52883174086625      3.41509749501736      0.42017603482442
  H          -3.23905584566906     -0.69096119457092      0.29781808806435
  H          -0.17178392658265      1.36387269057625      2.68959852610892
  H          -0.13473260094450     -1.78984542786108      1.17435433935429
