19
Coordinates from ORCA-job /home/hharb/C-STEEL/Fe_orca/all_calcs/orca_B3LYP-D4_2_5 E -1721.507431449053
  Fe         -0.78340703389741      0.71375414606640      0.03197342971753
  O          -1.33845125572327      2.77365864531835     -0.26572570189881
  H          -1.45246421720191      3.22610911411308     -1.11228547024121
  O           1.30012772120978      1.27349368680149      0.05370174256288
  H           2.05741525092232      0.67779162722163     -0.02362527221843
  O          -0.86022075125108      0.94273037124192      2.14244207813271
  H          -1.62532059323283      0.77991084313651      2.71090532863469
  O          -0.22425512598549     -1.34669685190788      0.32472626104619
  H          -0.05203871140416     -1.99609075464447     -0.37024860101232
  O          -2.87052976300559      0.15035902239740      0.01602963855154
  H          -3.22784754743126     -0.74398037157562     -0.06575616382180
  O          -0.70729120157850      0.48440325167439     -2.07834181182579
  H           0.05883325143677      0.64874527578477     -2.64502621335250
  H          -1.44482237958089      0.24699099166060     -2.65699140748546
  H           1.65521043043112      2.16902072656805      0.13264380670364
  H          -1.52676637628067      3.41934618986609      0.42856652429389
  H          -3.62662470285805      0.74770009749689      0.09190677578068
  H          -0.12150653115013      1.18227682309759      2.71869266125030
  H          -0.12155803341869     -1.80344306431721      1.17045780518228
