19
Coordinates from ORCA-job /home/hharb/C-STEEL/Fe_orca/all_calcs/orca_wB97M-D3BJ_2_5 E -1721.907851915151
  Fe         -0.78537891273445      0.71334896292406      0.03247010414631
  O          -1.33780085166972      2.76249901749562     -0.26001393245826
  H          -1.45215816609440      3.20884026236696     -1.10764691490464
  O           1.30583780149172      1.28298645520855      0.05679637797438
  H           2.04704172463215      0.73999814155793      0.35007399215956
  O          -0.90308720682848      1.04179765606771      2.13128257081597
  H          -1.68987963815918      0.94804500381614      2.68197461469698
  O          -0.22932386747284     -1.33505370764049      0.32258444443662
  H          -0.04420927220759     -1.98182487910595     -0.36890681183691
  O          -2.87592529033934      0.14109253253862      0.00772781918066
  H          -3.61787630147370      0.68092903406403     -0.28943736976076
  O          -0.66646717519122      0.38530614266369     -2.06742657162964
  H           0.12077667307595      0.48280680338631     -2.61684208332208
  H          -1.37671889952057      0.07149593740307     -2.64024867281061
  H           1.67390779302531      2.13115224451332     -0.21775192521421
  H          -1.52891092416945      3.40922669493690      0.42986970091336
  H          -3.24284419561980     -0.70585094986171      0.28750069184563
  H          -0.19070434554222      1.35319004308886      2.70277775714570
  H          -0.11779651520212     -1.78390562542366      1.16926161862193
