19
Coordinates from ORCA-job /home/hharb/C-STEEL/Fe_orca/all_calcs/orca_wB97X-D3_2_5 E -1721.686669363764
  Fe         -0.78400649270196      0.71353105487946      0.03262609246935
  O          -1.33942641736777      2.76548564128770     -0.26406324295411
  H          -1.46493623163850      3.21327451637873     -1.10741817719586
  O           1.29394134712373      1.27206847491589      0.05174500282294
  H           2.04710560566938      0.67721876028357     -0.02653108518626
  O          -0.86324711300962      0.94326708610629      2.13832429437544
  H          -1.62320297483270      0.77161624672518      2.70500536714683
  O          -0.22383485616686     -1.33892187267020      0.32234510361851
  H          -0.06172975404982     -1.98609898473806     -0.37220586346964
  O          -2.86443663421683      0.15320423606988      0.01766328032653
  H          -3.22116982216479     -0.73653766210709     -0.07301997489960
  O          -0.70388564119294      0.48233176452798     -2.07337985333799
  H           0.05823268365900      0.65529099238317     -2.63675015932830
  H          -1.43654369565297      0.24280913439833     -2.65126970646751
  H           1.64892098616816      2.16297636880036      0.13823943511040
  H          -1.51462655063131      3.41158132309678      0.42832167759794
  H          -3.61625162041508      0.74948695538336      0.09741723738329
  H          -0.12927402984108      1.18693733452067      2.71283967976020
  H          -0.11314635873798     -1.79344160024203      1.16415630222783
