%chk=Fe_2_B3LYP_2_5.chk
#p B3LYP 6-31+G(2df,p) empiricaldispersion=gd3 scf=(maxcycles=500,xqc,maxconventional=50) scrf=(cpcm,solvent=water)

Fe_2_B3LYP_solvated_radius_4_solvated_radius_6

2 5
Fe        -0.00009        0.00013       -0.00046
O         -1.13721        0.34145        1.75528
H         -1.28067        1.19596        2.18592
O          1.75905       -0.39992        1.15641
H          2.63619       -0.61931        0.81331
O         -0.52127       -2.08833        0.06498
H         -1.18737       -2.53071       -0.47877
O          1.13717       -0.34221       -1.75539
H          1.65060        0.31777       -2.24221
O         -1.76126        0.40093       -1.15340
H         -1.82483        0.39305       -2.11837
O          0.52374        2.08775       -0.06703
H          1.18995        2.52942        0.47717
H          0.13583        2.75944       -0.64443
H          1.81935       -0.39134        2.12158
H         -1.65005       -0.31923        2.24178
H         -2.63700        0.62106       -0.80719
H         -0.13170       -2.75974        0.64159
H          1.28028       -1.19718       -2.18522
O 1.7984741896633227 -5.315789473683976e-05 4.125292105263158
H 2.698474189663323 -5.315789473683976e-05 4.125292105263158
H 1.5054628506518817 0.8509135601446484 4.125292105263158
O -2.1947191419821324 -2.010629906005297 3.3752921052631577
H -1.2947191419821324 -2.010629906005297 3.3752921052631577
H -2.4877304809935734 -1.1596631879659116 3.3752921052631577
O 0.31958257814434304 3.6409996924416737 2.6252921052631573
H 1.219582578144343 3.6409996924416737 2.6252921052631573
H 0.026571239132902047 4.491966410481059 2.6252921052631573
O 2.4890190085867756 -3.2464889565696384 1.875292105263158
H 3.3890190085867755 -3.2464889565696384 1.875292105263158
H 2.1960076695753346 -2.395522238530253 1.875292105263158
O -4.290463927168027 0.7588761092629049 1.125292105263158
H -3.390463927168027 0.7588761092629049 1.125292105263158
H -4.583475266179468 1.6098428273022902 1.125292105263158
O 3.7837295504482062 2.4068220926462214 0.3752921052631582
H 4.683729550448207 2.4068220926462214 0.3752921052631582
H 3.490718211436765 3.2577888106856063 0.3752921052631582
O -1.1641186195953088 -4.330655406493152 -0.37470789473684185
H -0.2641186195953088 -4.330655406493152 -0.37470789473684185
H -1.4571299586067499 -3.479688688453767 -0.37470789473684185
O -2.008183516301935 3.8666539525756733 -1.1247078947368416
H -1.108183516301935 3.8666539525756733 -1.1247078947368416
H -2.301194855313376 4.717620670615059 -1.1247078947368416
O 3.8425819702008783 -1.4033442835464027 -1.8747078947368427
H 4.742581970200878 -1.4033442835464027 -1.8747078947368427
H 3.5495706311894373 -0.5523775655070176 -1.8747078947368427
O -3.3784898962839334 -1.3946600995256215 -2.6247078947368414
H -2.4784898962839335 -1.3946600995256215 -2.6247078947368414
H -3.6715012352953744 -0.5436933814862364 -2.6247078947368414
O 1.2616023526445064 2.695837936081664 -3.3747078947368423
H 2.1616023526445063 2.695837936081664 -3.3747078947368423
H 0.9685910136330653 3.5468046541210496 -3.3747078947368423
O 0.5382804902423645 -1.7160570453647057 -4.124707894736842
H 1.4382804902423645 -1.7160570453647057 -4.124707894736842
H 0.24526915123092347 -0.8650903273253205 -4.124707894736842
O 2.3232068538545367 0.14568169816906132 6.139180994152046
H 3.2232068538545366 0.14568169816906132 6.139180994152046
H 2.0301955148430957 0.9966484162084465 6.139180994152046
O -2.4625291824362447 -2.281361812055856 5.416958771929824
H -1.5625291824362448 -2.281361812055856 5.416958771929824
H -2.755540521447686 -1.4303950940164707 5.416958771929824
O 0.579893027599077 4.624264551932489 4.694736549707602
H 1.479893027599077 4.624264551932489 4.694736549707602
H 0.286881688587636 5.475231269971874 4.694736549707602
O 3.3172878159769335 -3.937426992186737 3.9725143274853796
H 4.217287815976934 -3.937426992186737 3.9725143274853796
H 3.0242764769654924 -3.0864602741473517 3.9725143274853796
O -5.356270099302337 1.1261806585789107 3.250292105263158
H -4.456270099302337 1.1261806585789107 3.250292105263158
H -5.649281438313778 1.9771473766182959 3.250292105263158
O 5.239546996206019 3.3597973016767138 2.528069883040935
H 6.139546996206019 3.3597973016767138 2.528069883040935
H 4.946535657194578 4.210764019716099 2.528069883040935
O -1.4341751498181505 -5.884431381203129 1.805847660818713
H -0.5341751498181505 -5.884431381203129 1.805847660818713
H -1.7271864888295916 -5.033464663163744 1.805847660818713
O -2.7671482484041663 5.833415384870546 1.083625438596491
H -1.8671482484041664 5.833415384870546 1.083625438596491
H -3.0601595874156073 6.684382102909931 1.083625438596491
O 6.283003650242349 -2.0806257694141177 0.36140321637426887
H 7.183003650242349 -2.0806257694141177 0.36140321637426887
H 5.989992311230908 -1.2296590513747325 0.36140321637426887
O -5.8121222548219365 -2.3306046586397926 -0.3608190058479533
H -4.912122254821936 -2.3306046586397926 -0.3608190058479533
H -6.1051335938333775 -1.4796379406004074 -0.3608190058479533
O 2.903310325945764 5.950610935122956 -1.0830412280701753
H 3.803310325945764 5.950610935122956 -1.0830412280701753
H 2.610298986934323 6.801577653162341 -1.0830412280701753
O 2.055631470483613 -5.812304973474692 -1.8052634502923974
H 2.955631470483613 -5.812304973474692 -1.8052634502923974
H 1.762620131472172 -4.961338255435307 -1.8052634502923974
O -4.994343111305353 3.1482859456467116 -2.52748567251462
H -4.094343111305353 3.1482859456467116 -2.52748567251462
H -5.287354450316794 3.9992526636860966 -2.52748567251462
O 5.684713912905808 1.3543728197017746 -3.2497078947368436
H 6.5847139129058085 1.3543728197017746 -3.2497078947368436
H 5.391702573894367 2.2053395377411595 -3.2497078947368436
O -2.7722199915031345 -4.06328334205804 -3.9719301169590646
H -1.8722199915031346 -4.06328334205804 -3.9719301169590646
H -3.0652313305145755 -3.212316624018655 -3.9719301169590646
O -0.39091327361060374 4.604200181975993 -4.694152339181287
H 0.5090867263893963 4.604200181975993 -4.694152339181287
H -0.6839246126220447 5.455166900015378 -4.694152339181287
O 2.934236342061441 -2.1698228779584 -5.416374561403509
H 3.8342363420614407 -2.1698228779584 -5.416374561403509
H 2.6412250030499997 -1.318856159919015 -5.416374561403509
O -1.947693096047857 0.057411858412872066 -6.138596783625731
H -1.047693096047857 0.057411858412872066 -6.138596783625731
H -2.240704435059298 0.9083785764522573 -6.138596783625731



