%chk=Fe_2_HSE06_2_5.chk
#p HSEH1PBE 6-31+G(2df,p) scf=(maxcycles=500,xqc,maxconventional=50) scrf=(cpcm,solvent=water)

Fe_2_HSE06_solvated_radius_4_solvated_radius_6

2 5
Fe        -0.00005       -0.00011        0.00004
O         -1.88280        0.02660        1.01994
H         -2.75805        0.04353        0.61588
O          0.03667        2.14709        0.01023
H          0.62440        2.71330       -0.50310
O          1.04485       -0.02650        1.83664
H          1.34003       -0.81069        2.31440
O          1.88262       -0.02676       -1.02015
H          2.01019       -0.02414       -1.97582
O         -0.03614       -2.14720       -0.01025
H          0.53155       -2.72823       -0.52955
O         -1.04511        0.02702       -1.83649
H         -1.33999        0.81164       -2.31373
H         -1.36689       -0.74199       -2.32169
H         -0.53125        2.72849        0.52886
H         -2.01057        0.02420        1.97559
H         -0.62302       -2.71380        0.50362
H          1.36623        0.74296        2.32140
H          2.75793       -0.04456       -0.61627
O 1.7984684001896385 4.473684210520783e-05 4.124976315789474
H 2.6984684001896384 4.473684210520783e-05 4.124976315789474
H 1.5054570611781974 0.8510114548814903 4.124976315789474
O -2.1947249314558164 -2.010532011268455 3.374976315789474
H -1.2947249314558165 -2.010532011268455 3.374976315789474
H -2.4877362704672574 -1.1595652932290699 3.374976315789474
O 0.3195767886706588 3.6410975871785154 2.6249763157894734
H 1.2195767886706588 3.6410975871785154 2.6249763157894734
H 0.02656544965921781 4.492064305217901 2.6249763157894734
O 2.4890132191130916 -3.2463910618327967 1.8749763157894737
H 3.3890132191130915 -3.2463910618327967 1.8749763157894737
H 2.1960018801016505 -2.3954243437934117 1.8749763157894737
O -4.290469716641711 0.7589740039997469 1.1249763157894737
H -3.3904697166417113 0.7589740039997469 1.1249763157894737
H -4.583481055653152 1.609940722039132 1.1249763157894737
O 3.7837237609745222 2.406919987383063 0.374976315789474
H 4.683723760974522 2.406919987383063 0.374976315789474
H 3.490712421963081 3.2578867054224485 0.374976315789474
O -1.164124409068993 -4.33055751175631 -0.37502368421052606
H -0.26412440906899304 -4.33055751175631 -0.37502368421052606
H -1.4571357480804341 -3.479590793716925 -0.37502368421052606
O -2.008189305775619 3.866751847312515 -1.125023684210526
H -1.108189305775619 3.866751847312515 -1.125023684210526
H -2.30120064478706 4.7177185653519 -1.125023684210526
O 3.8425761807271943 -1.4032463888095605 -1.875023684210527
H 4.742576180727195 -1.4032463888095605 -1.875023684210527
H 3.5495648417157533 -0.5522796707701754 -1.875023684210527
O -3.3784956857576174 -1.3945622047887793 -2.6250236842105252
H -2.4784956857576175 -1.3945622047887793 -2.6250236842105252
H -3.6715070247690584 -0.5435954867493942 -2.6250236842105252
O 1.2615965631708221 2.695935830818506 -3.375023684210526
H 2.1615965631708223 2.695935830818506 -3.375023684210526
H 0.9685852241593811 3.546902548857891 -3.375023684210526
O 0.5382747007686802 -1.7159591506278635 -4.125023684210526
H 1.4382747007686802 -1.7159591506278635 -4.125023684210526
H 0.24526336175723923 -0.8649924325884784 -4.125023684210526
O 2.3232010643808527 0.1457795929059033 6.138865204678363
H 3.2232010643808526 0.1457795929059033 6.138865204678363
H 2.0301897253694117 0.9967463109452885 6.138865204678363
O -2.462534971909929 -2.281263917319014 5.416642982456142
H -1.5625349719099293 -2.281263917319014 5.416642982456142
H -2.7555463109213703 -1.430297199279629 5.416642982456142
O 0.5798872381253928 4.624362446669331 4.694420760233919
H 1.479887238125393 4.624362446669331 4.694420760233919
H 0.2868758991139518 5.475329164708716 4.694420760233919
O 3.317282026503249 -3.9373290974498953 3.9721985380116966
H 4.217282026503249 -3.9373290974498953 3.9721985380116966
H 3.024270687491808 -3.0863623794105104 3.9721985380116966
O -5.356275888776022 1.1262785533157527 3.249976315789475
H -4.456275888776021 1.1262785533157527 3.249976315789475
H -5.649287227787463 1.9772452713551378 3.249976315789475
O 5.239541206732334 3.3598951964135555 2.527754093567252
H 6.139541206732335 3.3598951964135555 2.527754093567252
H 4.946529867720893 4.2108619144529404 2.527754093567252
O -1.4341809392918348 -5.884333486466287 1.80553187134503
H -0.5341809392918347 -5.884333486466287 1.80553187134503
H -1.7271922783032758 -5.033366768426902 1.80553187134503
O -2.7671540378778507 5.833513279607388 1.0833096491228078
H -1.8671540378778508 5.833513279607388 1.0833096491228078
H -3.060165376889292 6.684479997646773 1.0833096491228078
O 6.282997860768664 -2.080527874677276 0.3610874269005858
H 7.182997860768665 -2.080527874677276 0.3610874269005858
H 5.989986521757223 -1.2295611566378908 0.3610874269005858
O -5.812128044295621 -2.330506763902951 -0.36113479532163634
H -4.9121280442956206 -2.330506763902951 -0.36113479532163634
H -6.105139383307062 -1.4795400458635657 -0.36113479532163634
O 2.9033045364720795 5.950708829859798 -1.0833570175438585
H 3.8033045364720794 5.950708829859798 -1.0833570175438585
H 2.6102931974606385 6.801675547899183 -1.0833570175438585
O 2.0556256810099285 -5.81220707873785 -1.8055792397660806
H 2.9556256810099284 -5.81220707873785 -1.8055792397660806
H 1.7626143419984874 -4.961240360698465 -1.8055792397660806
O -4.994348900779038 3.1483838403835533 -2.527801461988303
H -4.094348900779037 3.1483838403835533 -2.527801461988303
H -5.287360239790479 3.9993505584229387 -2.527801461988303
O 5.684708123432124 1.3544707144386166 -3.2500236842105266
H 6.584708123432124 1.3544707144386166 -3.2500236842105266
H 5.391696784420683 2.2054374324780017 -3.2500236842105266
O -2.772225780976819 -4.063185447321198 -3.9722459064327476
H -1.872225780976819 -4.063185447321198 -3.9722459064327476
H -3.06523711998826 -3.2122187292818127 -3.9722459064327476
O -0.3909190630842879 4.604298076712835 -4.69446812865497
H 0.5090809369157121 4.604298076712835 -4.69446812865497
H -0.6839304020957289 5.45526479475222 -4.69446812865497
O 2.9342305525877563 -2.1697249832215584 -5.416690350877191
H 3.8342305525877562 -2.1697249832215584 -5.416690350877191
H 2.6412192135763153 -1.3187582651821732 -5.416690350877191
O -1.9476988855215411 0.05750975314971406 -6.138912573099414
H -1.047698885521541 0.05750975314971406 -6.138912573099414
H -2.240710224532982 0.9084764711890992 -6.138912573099414



