%chk=Fe_2_OLYP_2_5.chk
#p OLYP 6-31+G(2df,p) scf=(maxcycles=500,xqc,maxconventional=50) scrf=(cpcm,solvent=water)

Fe_2_OLYP_solvated_radius_4_solvated_radius_6

2 5
Fe        -0.00024        0.00006        0.00004
O         -0.12611       -2.05660       -0.77591
H         -0.18111       -2.87599       -0.26284
O          2.20869       -0.13352       -0.00390
H          2.82800        0.46763        0.43538
O          0.04468        0.79240       -2.00988
H         -0.71601        1.09730       -2.52682
O          0.12613        2.05677        0.77552
H          0.14233        2.31550        1.70856
O         -2.20884        0.13299        0.00412
H         -2.75002        0.80414        0.44523
O         -0.04384       -0.79217        2.00997
H          0.71763       -1.09695        2.52584
H         -0.83382       -0.99932        2.53135
H          2.74952       -0.80615       -0.44319
H         -0.14103       -2.31510       -1.70903
H         -2.82784       -0.46715       -0.43697
H          0.83543        0.99941       -2.53017
H          0.17740        2.87623        0.26217
O 1.79848682124227 -2.7368421052670638e-05 4.124972105263158
H 2.69848682124227 -2.7368421052670638e-05 4.124972105263158
H 1.505475482230829 0.8509393496183325 4.124972105263158
O -2.194706510403185 -2.0106041165316126 3.374972105263158
H -1.2947065104031852 -2.0106041165316126 3.374972105263158
H -2.487717849414626 -1.1596373984922275 3.374972105263158
O 0.31959520972329036 3.641025481915358 2.6249721052631574
H 1.2195952097232903 3.641025481915358 2.6249721052631574
H 0.026583870711849367 4.491992199954743 2.6249721052631574
O 2.489031640165723 -3.2464631670959543 1.874972105263158
H 3.389031640165723 -3.2464631670959543 1.874972105263158
H 2.196020301154282 -2.3954964490565693 1.874972105263158
O -4.2904512955890795 0.7589018987365891 1.124972105263158
H -3.3904512955890795 0.7589018987365891 1.124972105263158
H -4.5834626346005205 1.6098686167759744 1.124972105263158
O 3.7837421820271535 2.4068478821199055 0.3749721052631583
H 4.683742182027154 2.4068478821199055 0.3749721052631583
H 3.4907308430157125 3.257814600159291 0.3749721052631583
O -1.1641059880163616 -4.3306296170194685 -0.3750278947368418
H -0.26410598801636154 -4.3306296170194685 -0.3750278947368418
H -1.4571173270278026 -3.4796628989800835 -0.3750278947368418
O -2.0081708847229875 3.8666797420493575 -1.1250278947368415
H -1.1081708847229876 3.8666797420493575 -1.1250278947368415
H -2.3011822237344286 4.717646460088742 -1.1250278947368415
O 3.8425946017798256 -1.4033184940727186 -1.8750278947368426
H 4.7425946017798255 -1.4033184940727186 -1.8750278947368426
H 3.5495832627683845 -0.5523517760333334 -1.8750278947368426
O -3.378477264704986 -1.3946343100519374 -2.6250278947368413
H -2.478477264704986 -1.3946343100519374 -2.6250278947368413
H -3.671488603716427 -0.5436675920125522 -2.6250278947368413
O 1.2616149842234536 2.6958637255553484 -3.375027894736842
H 2.1616149842234536 2.6958637255553484 -3.375027894736842
H 0.9686036452120126 3.5468304435947333 -3.375027894736842
O 0.5382931218213118 -1.7160312558910216 -4.125027894736842
H 1.438293121821312 -1.7160312558910216 -4.125027894736842
H 0.24528178280987084 -0.8650645378516364 -4.125027894736842
O 2.323219485433484 0.1457074876427454 6.138860994152047
H 3.223219485433484 0.1457074876427454 6.138860994152047
H 2.030208146422043 0.9966742056821306 6.138860994152047
O -2.4625165508572975 -2.2813360225821717 5.416638771929826
H -1.5625165508572976 -2.2813360225821717 5.416638771929826
H -2.7555278898687385 -1.4303693045427865 5.416638771929826
O 0.5799056591780243 4.624290341406174 4.694416549707603
H 1.4799056591780242 4.624290341406174 4.694416549707603
H 0.2868943201665833 5.475257059445559 4.694416549707603
O 3.3173004475558807 -3.937401202713053 3.972194327485381
H 4.217300447555881 -3.937401202713053 3.972194327485381
H 3.0242891085444397 -3.086434484673668 3.972194327485381
O -5.35625746772339 1.1262064480525946 3.2499721052631596
H -4.45625746772339 1.1262064480525946 3.2499721052631596
H -5.649268806734831 1.9771731660919798 3.2499721052631596
O 5.239559627784966 3.359823091150398 2.5277498830409364
H 6.1395596277849664 3.359823091150398 2.5277498830409364
H 4.946548288773525 4.210789809189783 2.5277498830409364
O -1.4341625182392033 -5.884405591729444 1.8055276608187143
H -0.5341625182392032 -5.884405591729444 1.8055276608187143
H -1.7271738572506443 -5.033438873690059 1.8055276608187143
O -2.767135616825219 5.83344117434423 1.0833054385964922
H -1.8671356168252191 5.83344117434423 1.0833054385964922
H -3.06014695583666 6.684407892383615 1.0833054385964922
O 6.283016281821296 -2.0805999799404336 0.36108321637427016
H 7.183016281821296 -2.0805999799404336 0.36108321637427016
H 5.990004942809855 -1.2296332619010484 0.36108321637427016
O -5.812109623242989 -2.3305788691661085 -0.361139005847952
H -4.912109623242989 -2.3305788691661085 -0.361139005847952
H -6.10512096225443 -1.4796121511267233 -0.361139005847952
O 2.9033229575247113 5.950636724596641 -1.083361228070174
H 3.803322957524711 5.950636724596641 -1.083361228070174
H 2.61031161851327 6.801603442636026 -1.083361228070174
O 2.05564410206256 -5.8122791840010075 -1.8055834502923962
H 2.95564410206256 -5.8122791840010075 -1.8055834502923962
H 1.7626327630511192 -4.961312465961623 -1.8055834502923962
O -4.994330479726406 3.1483117351203957 -2.5278056725146185
H -4.0943304797264055 3.1483117351203957 -2.5278056725146185
H -5.287341818737847 3.999278453159781 -2.5278056725146185
O 5.6847265444847555 1.3543986091754585 -3.250027894736842
H 6.584726544484756 1.3543986091754585 -3.250027894736842
H 5.391715205473314 2.2053653272148437 -3.250027894736842
O -2.772207359924187 -4.063257552584355 -3.972250116959063
H -1.8722073599241873 -4.063257552584355 -3.972250116959063
H -3.0652186989356283 -3.2122908345449703 -3.972250116959063
O -0.3909006420316565 4.604225971449678 -4.694472339181286
H 0.5090993579683436 4.604225971449678 -4.694472339181286
H -0.6839119810430975 5.4551926894890626 -4.694472339181286
O 2.934248973640388 -2.169797088484716 -5.416694561403507
H 3.834248973640388 -2.169797088484716 -5.416694561403507
H 2.641237634628947 -1.3188303704453308 -5.416694561403507
O -1.9476804644689096 0.057437647886556156 -6.13891678362573
H -1.0476804644689097 0.057437647886556156 -6.13891678362573
H -2.2406918034803507 0.9084043659259413 -6.13891678362573



