%chk=Fe_2_M05_2_5.chk
#p M05 6-31+G(2df,p) empiricaldispersion=gd3 scf=(maxcycles=500,xqc,maxconventional=50) scrf=(cpcm,solvent=water)

Fe_2_M05_solvated_radius_4_solvated_radius_6

2 5
Fe        -0.01219       -0.00224       -0.00036
O         -0.33239        1.64294        1.34178
H         -0.53742        2.55149        1.09288
O          2.14535        0.35767        0.10558
H          2.82493       -0.06588       -0.43397
O          0.15307       -1.36472        1.63544
H         -0.54642       -1.90457        2.02229
O          0.36272       -1.63710       -1.34184
H          0.40207       -1.59265       -2.30379
O         -2.15625       -0.35694       -0.10286
H         -2.63851       -0.82291       -0.79313
O         -0.13988        1.36351       -1.63694
H          0.59507        1.86217       -2.01318
H         -0.93205        1.63194       -2.11662
H          2.60506        0.96680        0.69572
H         -0.34208        1.60780        2.30513
H         -2.81716       -0.07172        0.53810
H          0.96577       -1.58414        2.10595
H          0.47682       -2.56293       -1.09938
O 1.8024636633475333 0.0009747368421052446 4.125042105263158
H 2.702463663347533 0.0009747368421052446 4.125042105263158
H 1.5094523243360922 0.8519414548814904 4.125042105263158
O -2.190729668297922 -2.0096020112684547 3.375042105263158
H -1.2907296682979221 -2.0096020112684547 3.375042105263158
H -2.483741007309363 -1.1586352932290696 3.375042105263158
O 0.3235720518285536 3.6420275871785157 2.6250421052631574
H 1.2235720518285536 3.6420275871785157 2.6250421052631574
H 0.03056071281711259 4.492994305217901 2.6250421052631574
O 2.493008482270986 -3.2454610618327964 1.8750421052631578
H 3.393008482270986 -3.2454610618327964 1.8750421052631578
H 2.199997143259545 -2.3944943437934114 1.8750421052631578
O -4.286474453483816 0.759904003999747 1.1250421052631578
H -3.386474453483816 0.759904003999747 1.1250421052631578
H -4.579485792495257 1.6108707220391323 1.1250421052631578
O 3.7877190241324166 2.4078499873830634 0.3750421052631582
H 4.6877190241324165 2.4078499873830634 0.3750421052631582
H 3.4947076851209755 3.258816705422449 0.3750421052631582
O -1.1601291459110983 -4.3296275117563106 -0.3749578947368419
H -0.26012914591109826 -4.3296275117563106 -0.3749578947368419
H -1.4531404849225393 -3.4786607937169256 -0.3749578947368419
O -2.0041940426177245 3.8676818473125154 -1.1249578947368417
H -1.1041940426177246 3.8676818473125154 -1.1249578947368417
H -2.2972053816291655 4.7186485653519 -1.1249578947368417
O 3.8465714438850886 -1.4023163888095607 -1.8749578947368428
H 4.746571443885089 -1.4023163888095607 -1.8749578947368428
H 3.5535601048736476 -0.5513496707701755 -1.8749578947368428
O -3.374500422599723 -1.3936322047887795 -2.6249578947368413
H -2.474500422599723 -1.3936322047887795 -2.6249578947368413
H -3.667511761611164 -0.5426654867493943 -2.6249578947368413
O 1.265591826328717 2.6968658308185063 -3.374957894736842
H 2.165591826328717 2.6968658308185063 -3.374957894736842
H 0.9725804873172759 3.5478325488578912 -3.374957894736842
O 0.542269963926575 -1.7150291506278637 -4.124957894736842
H 1.442269963926575 -1.7150291506278637 -4.124957894736842
H 0.249258624915134 -0.8640624325884785 -4.124957894736842
O 2.327196327538747 0.14670959290590332 6.138930994152045
H 3.227196327538747 0.14670959290590332 6.138930994152045
H 2.034184988527306 0.9976763109452885 6.138930994152045
O -2.4585397087520344 -2.280333917319014 5.416708771929824
H -1.5585397087520345 -2.280333917319014 5.416708771929824
H -2.7515510477634755 -1.4293671992796286 5.416708771929824
O 0.5838825012832873 4.625292446669332 4.694486549707602
H 1.4838825012832872 4.625292446669332 4.694486549707602
H 0.29087116227184634 5.476259164708717 4.694486549707602
O 3.3212772896611438 -3.936399097449895 3.9722643274853797
H 4.221277289661144 -3.936399097449895 3.9722643274853797
H 3.0282659506497027 -3.08543237941051 3.9722643274853797
O -5.352280625618127 1.1272085533157525 3.2500421052631583
H -4.452280625618126 1.1272085533157525 3.2500421052631583
H -5.645291964629568 1.9781752713551377 3.2500421052631583
O 5.24353646989023 3.360825196413556 2.527819883040935
H 6.14353646989023 3.360825196413556 2.527819883040935
H 4.9505251308787885 4.211791914452941 2.527819883040935
O -1.4301856761339402 -5.883403486466286 1.805597660818713
H -0.5301856761339402 -5.883403486466286 1.805597660818713
H -1.7231970151453813 -5.032436768426901 1.805597660818713
O -2.763158774719956 5.834443279607388 1.0833754385964909
H -1.863158774719956 5.834443279607388 1.0833754385964909
H -3.056170113731397 6.685409997646773 1.0833754385964909
O 6.2869931239265595 -2.0795978746772756 0.36115321637426884
H 7.18699312392656 -2.0795978746772756 0.36115321637426884
H 5.9939817849151185 -1.2286311566378905 0.36115321637426884
O -5.808132781137726 -2.3295767639029505 -0.3610690058479533
H -4.908132781137725 -2.3295767639029505 -0.3610690058479533
H -6.101144120149167 -1.4786100458635654 -0.3610690058479533
O 2.9072997996299743 5.951638829859799 -1.0832912280701754
H 3.8072997996299742 5.951638829859799 -1.0832912280701754
H 2.6142884606185333 6.802605547899184 -1.0832912280701754
O 2.0596209441678233 -5.81127707873785 -1.8055134502923975
H 2.959620944167823 -5.81127707873785 -1.8055134502923975
H 1.7666096051563822 -4.960310360698465 -1.8055134502923975
O -4.990353637621142 3.1493138403835537 -2.52773567251462
H -4.090353637621142 3.1493138403835537 -2.52773567251462
H -5.283364976632583 4.000280558422939 -2.52773567251462
O 5.688703386590019 1.3554007144386164 -3.2499578947368435
H 6.588703386590019 1.3554007144386164 -3.2499578947368435
H 5.395692047578578 2.2063674324780016 -3.2499578947368435
O -2.768230517818924 -4.062255447321197 -3.9721801169590645
H -1.8682305178189242 -4.062255447321197 -3.9721801169590645
H -3.061241856830365 -3.2112887292818124 -3.9721801169590645
O -0.38692379992639336 4.6052280767128355 -4.694402339181288
H 0.5130762000736067 4.6052280767128355 -4.694402339181288
H -0.6799351389378343 5.4561947947522205 -4.694402339181288
O 2.938225815745651 -2.168794983221558 -5.416624561403509
H 3.838225815745651 -2.168794983221558 -5.416624561403509
H 2.64521447673421 -1.3178282651821729 -5.416624561403509
O -1.9437036223636466 0.05843975314971407 -6.138846783625731
H -1.0437036223636467 0.05843975314971407 -6.138846783625731
H -2.2367149613750876 0.9094064711890992 -6.138846783625731



