%chk=Fe_2_M08-HX_2_5.chk
#p M08HX 6-31+G(2df,p) scf=(maxcycles=500,xqc,maxconventional=50) scrf=(cpcm,solvent=water)

Fe_2_M08-HX_solvated_radius_4_solvated_radius_6

2 5
Fe        -0.00017       -0.00091       -0.00069
O         -1.16036        1.36077        1.18379
H         -1.32897        2.28595        0.97271
O         -0.58109       -1.66307        1.21763
H         -1.27271       -2.29976        1.00410
O         -1.75465       -0.34395       -1.18797
H         -1.80818       -0.81442       -2.02622
O          1.15670       -1.36176       -1.18676
H          1.58419       -1.17037       -2.02902
O          0.58659        1.66390       -1.21490
H          1.30073        2.27831       -1.01383
O          1.75316        0.34660        1.18884
H          1.80190        0.81717        2.02707
H          2.64164        0.04050        0.97845
H         -0.21110       -1.91727        2.06843
H         -1.60381        1.16885        2.01744
H          0.19431        1.94057       -2.04997
H         -2.64316       -0.04490       -0.96837
H          1.34670       -2.28108       -0.96783
O 1.7985273475580597 0.0002699999999999224 4.125678947368421
H 2.6985273475580596 0.0002699999999999224 4.125678947368421
H 1.5055160085466186 0.851236718039385 4.125678947368421
O -2.1946659840873957 -2.01030674811056 3.3756789473684212
H -1.2946659840873957 -2.01030674811056 3.3756789473684212
H -2.4876773230988367 -1.159340030071175 3.3756789473684212
O 0.31963573603907985 3.6413228503364103 2.625678947368421
H 1.21963573603908 3.6413228503364103 2.625678947368421
H 0.026624397027638858 4.492289568375796 2.625678947368421
O 2.4890721664815123 -3.2461657986749017 1.875678947368421
H 3.389072166481512 -3.2461657986749017 1.875678947368421
H 2.1960608274700713 -2.395199080635517 1.875678947368421
O -4.29041076927329 0.7591992671576416 1.125678947368421
H -3.39041076927329 0.7591992671576416 1.125678947368421
H -4.583422108284731 1.610165985197027 1.125678947368421
O 3.783782708342943 2.407145250540958 0.37567894736842133
H 4.683782708342943 2.407145250540958 0.37567894736842133
H 3.490771369331502 3.2581119685803435 0.37567894736842133
O -1.164065461700572 -4.330332248598416 -0.3743210526315787
H -0.2640654617005719 -4.330332248598416 -0.3743210526315787
H -1.457076800712013 -3.479365530559031 -0.3743210526315787
O -2.008130358407198 3.86697711047041 -1.1243210526315786
H -1.1081303584071982 3.86697711047041 -1.1243210526315786
H -2.301141697418639 4.717943828509795 -1.1243210526315786
O 3.842635128095615 -1.4030211256516658 -1.8743210526315797
H 4.742635128095615 -1.4030211256516658 -1.8743210526315797
H 3.549623789084174 -0.5520544076122806 -1.8743210526315797
O -3.3784367383891967 -1.3943369416308846 -2.624321052631578
H -2.4784367383891968 -1.3943369416308846 -2.624321052631578
H -3.6714480774006377 -0.5433702235914994 -2.624321052631578
O 1.2616555105392433 2.696161093976401 -3.3743210526315788
H 2.1616555105392434 2.696161093976401 -3.3743210526315788
H 0.9686441715278022 3.547127812015786 -3.3743210526315788
O 0.5383336481371013 -1.7157338874699688 -4.124321052631579
H 1.4383336481371014 -1.7157338874699688 -4.124321052631579
H 0.24532230912566028 -0.8647671694305836 -4.124321052631579
O 2.3232600117492734 0.146004856063798 6.139567836257309
H 3.2232600117492733 0.146004856063798 6.139567836257309
H 2.0302486727378324 0.9969715741031832 6.139567836257309
O -2.462476024541508 -2.281038654161119 5.417345614035088
H -1.5624760245415081 -2.281038654161119 5.417345614035088
H -2.755487363552949 -1.430071936121734 5.417345614035088
O 0.5799461854938137 4.624587709827226 4.695123391812865
H 1.4799461854938136 4.624587709827226 4.695123391812865
H 0.2869348464823727 5.475554427866611 4.695123391812865
O 3.31734097387167 -3.9371038342920004 3.972901169590643
H 4.2173409738716705 -3.9371038342920004 3.972901169590643
H 3.024329634860229 -3.0861371162526154 3.972901169590643
O -5.356216941407601 1.1265038164736474 3.2506789473684217
H -4.4562169414076 1.1265038164736474 3.2506789473684217
H -5.649228280419042 1.9774705345130326 3.2506789473684217
O 5.2396001541007555 3.3601204595714504 2.5284567251461985
H 6.139600154100756 3.3601204595714504 2.5284567251461985
H 4.9465888150893145 4.211087177610835 2.5284567251461985
O -1.4341219919234138 -5.884108223308392 1.8062345029239766
H -0.5341219919234138 -5.884108223308392 1.8062345029239766
H -1.7271333309348549 -5.033141505269007 1.8062345029239766
O -2.7670950905094296 5.833738542765283 1.0840122807017545
H -1.8670950905094297 5.833738542765283 1.0840122807017545
H -3.0601064295208706 6.684705260804668 1.0840122807017545
O 6.2830568081370854 -2.080302611519381 0.3617900584795324
H 7.183056808137086 -2.080302611519381 0.3617900584795324
H 5.990045469125644 -1.2293358934799958 0.3617900584795324
O -5.8120690969272 -2.330281500745056 -0.36043216374268977
H -4.912069096927199 -2.330281500745056 -0.36043216374268977
H -6.105080435938641 -1.4793147827056707 -0.36043216374268977
O 2.9033634838405007 5.950934093017693 -1.0826543859649118
H 3.8033634838405006 5.950934093017693 -1.0826543859649118
H 2.6103521448290596 6.801900811057078 -1.0826543859649118
O 2.0556846283783496 -5.811981815579955 -1.804876608187134
H 2.9556846283783496 -5.811981815579955 -1.804876608187134
H 1.7626732893669086 -4.96101509754057 -1.804876608187134
O -4.994289953410616 3.1486091035414483 -2.5270988304093565
H -4.094289953410616 3.1486091035414483 -2.5270988304093565
H -5.2873012924220575 3.9995758215808337 -2.5270988304093565
O 5.684767070800545 1.3546959775965113 -3.24932105263158
H 6.584767070800545 1.3546959775965113 -3.24932105263158
H 5.391755731789104 2.2056626956358967 -3.24932105263158
O -2.7721668336083978 -4.062960184163303 -3.971543274853801
H -1.8721668336083979 -4.062960184163303 -3.971543274853801
H -3.065178172619839 -3.211993466123918 -3.971543274853801
O -0.39086011571586704 4.60452333987073 -4.693765497076024
H 0.509139884284133 4.60452333987073 -4.693765497076024
H -0.683871454727308 5.455490057910115 -4.693765497076024
O 2.9342894999561775 -2.1694997200636634 -5.415987719298245
H 3.8342894999561774 -2.1694997200636634 -5.415987719298245
H 2.6412781609447364 -1.3185330020242783 -5.415987719298245
O -1.9476399381531202 0.05773501630760876 -6.138209941520468
H -1.0476399381531203 0.05773501630760876 -6.138209941520468
H -2.2406512771645613 0.908701734346994 -6.138209941520468



