%chk=Fe_2_n12_2_5.chk
#p n12 6-31+G(2df,p) scf=(maxcycles=500,xqc,maxconventional=50) scrf=(cpcm,solvent=water)

Fe_2_n12_solvated_radius_4_solvated_radius_6

2 5
Fe        -0.00025       -0.00003        0.00002
O         -0.09810        1.81466       -1.06252
H         -0.11146        1.90604       -2.01534
O          2.12444        0.09681       -0.02733
H          2.72100       -0.41172        0.52193
O         -0.02551        1.09020        1.76824
H         -0.80719        1.37765        2.24144
O          0.09810       -1.81473        1.06242
H          0.13359       -2.69260        0.68240
O         -2.12464       -0.09658        0.02733
H         -2.72103        0.41036       -0.52359
O          0.02633       -1.09030       -1.76818
H          0.80884       -1.37717       -2.24034
H         -0.73820       -1.45089       -2.21877
H          2.65931        0.65648       -0.59025
H         -0.13633        2.69244       -0.68257
H         -2.65973       -0.65447        0.59181
H          0.73987        1.45027        2.21780
H          0.11276       -1.90615        2.01521
O 1.7985315580843755 1.4210526315800764e-05 4.124984736842105
H 2.6985315580843756 1.4210526315800764e-05 4.124984736842105
H 1.5055202190729344 0.850980928565701 4.124984736842105
O -2.1946617735610796 -2.0105625375842444 3.374984736842105
H -1.2946617735610797 -2.0105625375842444 3.374984736842105
H -2.4876731125725207 -1.1595958195448592 3.374984736842105
O 0.31963994656539574 3.641067060862726 2.6249847368421046
H 1.2196399465653958 3.641067060862726 2.6249847368421046
H 0.026628607553954742 4.492033778902111 2.6249847368421046
O 2.4890763770078284 -3.246421588148586 1.8749847368421053
H 3.3890763770078283 -3.246421588148586 1.8749847368421053
H 2.1960650379963873 -2.3954548701092007 1.8749847368421053
O -4.290406558746974 0.7589434776839575 1.1249847368421053
H -3.390406558746974 0.7589434776839575 1.1249847368421053
H -4.583417897758415 1.6099101957233426 1.1249847368421053
O 3.783786918869259 2.4068894610672737 0.37498473684210554
H 4.683786918869259 2.4068894610672737 0.37498473684210554
H 3.490775579857818 3.2578561791066587 0.37498473684210554
O -1.164061251174256 -4.3305880380721 -0.3750152631578945
H -0.26406125117425605 -4.3305880380721 -0.3750152631578945
H -1.4570725901856971 -3.479621320032715 -0.3750152631578945
O -2.008126147880882 3.8667213209967257 -1.1250152631578942
H -1.1081261478808822 3.8667213209967257 -1.1250152631578942
H -2.301137486892323 4.717688039036111 -1.1250152631578942
O 3.842639338621931 -1.40327691512535 -1.8750152631578954
H 4.742639338621931 -1.40327691512535 -1.8750152631578954
H 3.54962799961049 -0.5523101970859647 -1.8750152631578954
O -3.3784325278628806 -1.3945927311045687 -2.625015263157894
H -2.4784325278628807 -1.3945927311045687 -2.625015263157894
H -3.6714438668743217 -0.5436260130651835 -2.625015263157894
O 1.2616597210655591 2.6959053045027166 -3.375015263157895
H 2.161659721065559 2.6959053045027166 -3.375015263157895
H 0.9686483820541181 3.546872022542102 -3.375015263157895
O 0.5383378586634171 -1.715989676943653 -4.125015263157895
H 1.438337858663417 -1.715989676943653 -4.125015263157895
H 0.2453265196519761 -0.8650229589042677 -4.125015263157895
O 2.3232642222755895 0.1457490665901138 6.138873625730994
H 3.2232642222755894 0.1457490665901138 6.138873625730994
H 2.0302528832641484 0.996715784629499 6.138873625730994
O -2.462471814015192 -2.2812944436348035 5.416651403508773
H -1.562471814015192 -2.2812944436348035 5.416651403508773
H -2.755483153026633 -1.4303277255954183 5.416651403508773
O 0.5799503960201297 4.6243319203535425 4.694429181286551
H 1.4799503960201297 4.6243319203535425 4.694429181286551
H 0.28693905700868866 5.475298638392927 4.694429181286551
O 3.317345184397986 -3.9373596237656847 3.9722069590643283
H 4.217345184397987 -3.9373596237656847 3.9722069590643283
H 3.024333845386545 -3.0863929057262993 3.9722069590643283
O -5.356212730881285 1.126248026999963 3.249984736842107
H -4.456212730881284 1.126248026999963 3.249984736842107
H -5.649224069892726 1.9772147450393482 3.249984736842107
O 5.239604364627072 3.359864670097766 2.5277625146198837
H 6.139604364627072 3.359864670097766 2.5277625146198837
H 4.9465930256156305 4.2108313881371515 2.5277625146198837
O -1.4341177813970978 -5.8843640127820755 1.8055402923976616
H -0.5341177813970978 -5.8843640127820755 1.8055402923976616
H -1.7271291204085388 -5.033397294742691 1.8055402923976616
O -2.7670908799831135 5.833482753291599 1.0833180701754395
H -1.8670908799831136 5.833482753291599 1.0833180701754395
H -3.0601022189945546 6.684449471330984 1.0833180701754395
O 6.2830610186634015 -2.0805584009930653 0.3610958479532174
H 7.183061018663402 -2.0805584009930653 0.3610958479532174
H 5.9900496796519604 -1.2295916829536802 0.3610958479532174
O -5.812064886400884 -2.3305372902187402 -0.36112637426900474
H -4.912064886400883 -2.3305372902187402 -0.36112637426900474
H -6.105076225412325 -1.479570572179355 -0.36112637426900474
O 2.9033676943668167 5.950678303544009 -1.0833485964912268
H 3.8033676943668167 5.950678303544009 -1.0833485964912268
H 2.6103563553553757 6.801645021583394 -1.0833485964912268
O 2.0556888389046657 -5.812237605053639 -1.805570818713449
H 2.9556888389046656 -5.812237605053639 -1.805570818713449
H 1.7626774998932246 -4.961270887014254 -1.805570818713449
O -4.9942857428843 3.148353314067764 -2.5277930409356713
H -4.0942857428843 3.148353314067764 -2.5277930409356713
H -5.287297081895741 3.999320032107149 -2.5277930409356713
O 5.684771281326861 1.354440188122827 -3.250015263157895
H 6.584771281326861 1.354440188122827 -3.250015263157895
H 5.39175994231542 2.205406906162212 -3.250015263157895
O -2.7721626230820817 -4.063215973636987 -3.972237485380116
H -1.8721626230820818 -4.063215973636987 -3.972237485380116
H -3.0651739620935228 -3.2122492555976017 -3.972237485380116
O -0.39085590518955104 4.604267550397046 -4.694459707602339
H 0.509144094810449 4.604267550397046 -4.694459707602339
H -0.6838672442009921 5.455234268436431 -4.694459707602339
O 2.9342937104824935 -2.1697555095373477 -5.41668192982456
H 3.8342937104824935 -2.1697555095373477 -5.41668192982456
H 2.6412823714710525 -1.3187887914979626 -5.41668192982456
O -1.9476357276268041 0.05747922683392455 -6.138904152046782
H -1.0476357276268042 0.05747922683392455 -6.138904152046782
H -2.240647066638245 0.9084459448733098 -6.138904152046782



