%chk=Fe_2_M06-L_2_5.chk
#p M06L 6-31+G(2df,p) scf=(maxcycles=500,xqc,maxconventional=50) scrf=(cpcm,solvent=water)

Fe_2_M06-L_solvated_radius_4_solvated_radius_6

2 5
Fe         0.00004        0.00010       -0.00002
O         -1.15616       -0.29298        1.74984
H         -1.65955        0.37706        2.22714
O          1.77383        0.37996        1.15167
H          2.65290        0.58253        0.81227
O          0.47997       -2.10555       -0.03572
H          0.09217       -2.77893       -0.60611
O          1.15601        0.29287       -1.75001
H          1.32047        1.13130       -2.19741
O         -1.77388       -0.37996       -1.15147
H         -2.65381       -0.57878       -0.81148
O         -0.47989        2.10555        0.03570
H         -0.09301        2.77874        0.60697
H         -1.12384        2.56150       -0.51801
H          1.84533        0.38285        2.11289
H         -1.32142       -1.13176        2.19635
H         -1.84454       -0.38761       -2.11293
H          1.12472       -2.56140        0.51715
H          1.66045       -0.37710       -2.22627
O 1.798425768610691 -8.473684210523396e-05 4.125028947368421
H 2.698425768610691 -8.473684210523396e-05 4.125028947368421
H 1.50541442959925 0.85088198119728 4.125028947368421
O -2.194767563034764 -2.0106614849526654 3.375028947368421
H -1.294767563034764 -2.0106614849526654 3.375028947368421
H -2.487778902046205 -1.1596947669132802 3.375028947368421
O 0.31953415709171146 3.640968113494305 2.6250289473684205
H 1.2195341570917115 3.640968113494305 2.6250289473684205
H 0.02652281808027046 4.49193483153369 2.6250289473684205
O 2.488970587534144 -3.246520535517007 1.875028947368421
H 3.388970587534144 -3.246520535517007 1.875028947368421
H 2.195959248522703 -2.395553817477622 1.875028947368421
O -4.290512348220658 0.7588445303155366 1.125028947368421
H -3.3905123482206583 0.7588445303155366 1.125028947368421
H -4.583523687232099 1.6098112483549216 1.125028947368421
O 3.7836811293955748 2.4067905136988528 0.3750289473684213
H 4.683681129395575 2.4067905136988528 0.3750289473684213
H 3.4906697903841337 3.257757231738238 0.3750289473684213
O -1.1641670406479405 -4.33068698544052 -0.37497105263157876
H -0.2641670406479405 -4.33068698544052 -0.37497105263157876
H -1.4571783796593816 -3.4797202674011354 -0.37497105263157876
O -2.0082319373545663 3.8666223736283047 -1.1249710526315786
H -1.1082319373545664 3.8666223736283047 -1.1249710526315786
H -2.3012432763660073 4.71758909166769 -1.1249710526315786
O 3.842533549148247 -1.403375862493771 -1.8749710526315797
H 4.742533549148247 -1.403375862493771 -1.8749710526315797
H 3.549522210136806 -0.5524091444543859 -1.8749710526315797
O -3.378538317336565 -1.39469167847299 -2.624971052631578
H -2.478538317336565 -1.39469167847299 -2.624971052631578
H -3.671549656348006 -0.5437249604336047 -2.624971052631578
O 1.2615539315918747 2.6958063571342956 -3.374971052631579
H 2.161553931591875 2.6958063571342956 -3.374971052631579
H 0.9685425925804336 3.5467730751736806 -3.374971052631579
O 0.5382320691897329 -1.716088624312074 -4.124971052631579
H 1.4382320691897328 -1.716088624312074 -4.124971052631579
H 0.24522073017829188 -0.8651219062726889 -4.124971052631579
O 2.3231584328019053 0.14565011922169285 6.138917836257309
H 3.223158432801905 0.14565011922169285 6.138917836257309
H 2.030147093790464 0.996616837261078 6.138917836257309
O -2.462577603488876 -2.2813933910032245 5.4166956140350875
H -1.5625776034888763 -2.2813933910032245 5.4166956140350875
H -2.7555889425003173 -1.4304266729638393 5.4166956140350875
O 0.5798446065464454 4.624232972985121 4.694473391812865
H 1.4798446065464455 4.624232972985121 4.694473391812865
H 0.28683326753500443 5.475199691024506 4.694473391812865
O 3.317239394924302 -3.9374585711341057 3.9722511695906433
H 4.217239394924302 -3.9374585711341057 3.9722511695906433
H 3.024228055912861 -3.0864918530947207 3.9722511695906433
O -5.356318520354969 1.126149079631542 3.250028947368422
H -4.4563185203549684 1.126149079631542 3.250028947368422
H -5.64932985936641 1.9771157976709273 3.250028947368422
O 5.239498575153387 3.359765722729345 2.5278067251461986
H 6.139498575153388 3.359765722729345 2.5278067251461986
H 4.946487236141946 4.21073244076873 2.5278067251461986
O -1.4342235708707822 -5.884462960150497 1.8055845029239763
H -0.5342235708707822 -5.884462960150497 1.8055845029239763
H -1.7272349098822233 -5.033496242111112 1.8055845029239763
O -2.7671966694567978 5.8333838059231775 1.0833622807017542
H -1.8671966694567979 5.8333838059231775 1.0833622807017542
H -3.060208008468239 6.6843505239625625 1.0833622807017542
O 6.282955229189717 -2.0806573483614863 0.3611400584795323
H 7.182955229189718 -2.0806573483614863 0.3611400584795323
H 5.989943890178276 -1.2296906303221011 0.3611400584795323
O -5.812170675874568 -2.330636237587161 -0.36108216374268987
H -4.912170675874568 -2.330636237587161 -0.36108216374268987
H -6.105182014886009 -1.479669519547776 -0.36108216374268987
O 2.9032619048931325 5.950579356175588 -1.083304385964912
H 3.8032619048931324 5.950579356175588 -1.083304385964912
H 2.6102505658816915 6.801546074214973 -1.083304385964912
O 2.0555830494309815 -5.81233655242206 -1.8055266081871342
H 2.9555830494309814 -5.81233655242206 -1.8055266081871342
H 1.7625717104195404 -4.961369834382675 -1.8055266081871342
O -4.994391532357985 3.148254366699343 -2.5277488304093563
H -4.094391532357984 3.148254366699343 -2.5277488304093563
H -5.287402871369426 3.9992210847387284 -2.5277488304093563
O 5.684665491853177 1.354341240754406 -3.24997105263158
H 6.584665491853177 1.354341240754406 -3.24997105263158
H 5.391654152841736 2.2053079587937914 -3.24997105263158
O -2.772268412555766 -4.063314921005408 -3.972193274853801
H -1.872268412555766 -4.063314921005408 -3.972193274853801
H -3.065279751567207 -3.212348202966023 -3.972193274853801
O -0.39096169466323527 4.604168603028625 -4.694415497076024
H 0.5090383053367648 4.604168603028625 -4.694415497076024
H -0.6839730336746763 5.45513532106801 -4.694415497076024
O 2.9341879210088093 -2.1698544569057687 -5.416637719298246
H 3.8341879210088092 -2.1698544569057687 -5.416637719298246
H 2.6411765819973683 -1.3188877388663836 -5.416637719298246
O -1.9477415171004886 0.0573802794655036 -6.138859941520468
H -1.0477415171004885 0.0573802794655036 -6.138859941520468
H -2.2407528561119294 0.9083469975048888 -6.138859941520468



