%chk=Fe_2_X3LYP_2_5.chk
#p X3LYP 6-31+G(2df,p) scf=(maxcycles=500,xqc,maxconventional=50) scrf=(cpcm,solvent=water)

Fe_2_X3LYP_solvated_radius_4_solvated_radius_6

2 5
Fe         0.00023       -0.00015       -0.00001
O          1.22693        1.35432       -1.13511
H          1.30395        1.38338       -2.09859
O          1.65520       -1.39215        0.11797
H          1.72021       -2.16269        0.69859
O          0.67483        0.95964        1.77239
H          0.27896        1.73960        2.18573
O         -1.22740       -1.35379        1.13515
H         -1.80186       -2.04644        0.78106
O         -1.65502        1.39198       -0.11809
H         -1.71871        2.16433       -0.69643
O         -0.67527       -0.95951       -1.77229
H         -0.27964       -1.73888       -2.18700
H         -1.46071       -0.72631       -2.28666
H          2.46958       -1.36216       -0.40259
H          1.80637        2.04266       -0.78069
H         -2.47074        1.36008        0.40024
H          1.45947        0.72670        2.28806
H         -1.30700       -1.38045        2.09856
O 1.7984041896633227 8.421052631599055e-06 4.125015263157895
H 2.698404189663323 8.421052631599055e-06 4.125015263157895
H 1.5053928506518817 0.8509751390920167 4.125015263157895
O -2.1947891419821324 -2.0105683270579284 3.375015263157895
H -1.2947891419821325 -2.0105683270579284 3.375015263157895
H -2.4878004809935734 -1.1596016090185433 3.375015263157895
O 0.31951257814434303 3.641061271389042 2.6250152631578945
H 1.219512578144343 3.641061271389042 2.6250152631578945
H 0.026501239132902032 4.492027989428427 2.6250152631578945
O 2.4889490085867756 -3.24642737762227 1.8750152631578947
H 3.3889490085867755 -3.24642737762227 1.8750152631578947
H 2.1959376695753345 -2.395460659582885 1.8750152631578947
O -4.290533927168027 0.7589376882102733 1.1250152631578947
H -3.390533927168027 0.7589376882102733 1.1250152631578947
H -4.583545266179468 1.6099044062496586 1.1250152631578947
O 3.7836595504482062 2.4068836715935897 0.3750152631578951
H 4.683659550448207 2.4068836715935897 0.3750152631578951
H 3.490648211436765 3.257850389632975 0.3750152631578951
O -1.1641886195953088 -4.330593827545784 -0.374984736842105
H -0.2641886195953088 -4.330593827545784 -0.374984736842105
H -1.45719995860675 -3.4796271095063993 -0.374984736842105
O -2.008253516301935 3.8667155315230417 -1.1249847368421049
H -1.108253516301935 3.8667155315230417 -1.1249847368421049
H -2.301264855313376 4.717682249562427 -1.1249847368421049
O 3.8425119702008783 -1.4032827045990341 -1.874984736842106
H 4.742511970200878 -1.4032827045990341 -1.874984736842106
H 3.5495006311894373 -0.552315986559649 -1.874984736842106
O -3.3785598962839334 -1.394598520578253 -2.624984736842104
H -2.4785598962839335 -1.394598520578253 -2.624984736842104
H -3.6715712352953744 -0.5436318025388678 -2.624984736842104
O 1.2615323526445064 2.6958995150290326 -3.374984736842105
H 2.1615323526445063 2.6958995150290326 -3.374984736842105
H 0.9685210136330653 3.5468662330684175 -3.374984736842105
O 0.5382104902423644 -1.7159954664173371 -4.124984736842105
H 1.4382104902423645 -1.7159954664173371 -4.124984736842105
H 0.24519915123092345 -0.865028748377952 -4.124984736842105
O 2.3231368538545367 0.14574327711642973 6.138904152046783
H 3.2231368538545366 0.14574327711642973 6.138904152046783
H 2.0301255148430957 0.9967099951558149 6.138904152046783
O -2.4625991824362448 -2.2813002331084875 5.416681929824562
H -1.5625991824362448 -2.2813002331084875 5.416681929824562
H -2.755610521447686 -1.4303335150691023 5.416681929824562
O 0.579823027599077 4.624326130879858 4.6944597076023395
H 1.479823027599077 4.624326130879858 4.6944597076023395
H 0.286811688587636 5.475292848919243 4.6944597076023395
O 3.3172178159769334 -3.9373654132393687 3.9722374853801172
H 4.217217815976934 -3.9373654132393687 3.9722374853801172
H 3.0242064769654924 -3.0863986951999838 3.9722374853801172
O -5.356340099302337 1.126242237526279 3.250015263157896
H -4.456340099302337 1.126242237526279 3.250015263157896
H -5.649351438313778 1.9772089555656642 3.250015263157896
O 5.239476996206019 3.359858880624082 2.5277930409356726
H 6.139476996206019 3.359858880624082 2.5277930409356726
H 4.946465657194578 4.210825598663467 2.5277930409356726
O -1.4342451498181505 -5.88436980225576 1.8055708187134505
H -0.5342451498181505 -5.88436980225576 1.8055708187134505
H -1.7272564888295916 -5.033403084216375 1.8055708187134505
O -2.7672182484041663 5.8334769638179145 1.0833485964912284
H -1.8672182484041664 5.8334769638179145 1.0833485964912284
H -3.0602295874156074 6.684443681857299 1.0833485964912284
O 6.282933650242349 -2.0805641904667493 0.36112637426900646
H 7.182933650242349 -2.0805641904667493 0.36112637426900646
H 5.989922311230908 -1.2295974724273642 0.36112637426900646
O -5.8121922548219365 -2.3305430796924242 -0.3610958479532157
H -4.912192254821936 -2.3305430796924242 -0.3610958479532157
H -6.1052035938333775 -1.479576361653039 -0.3610958479532157
O 2.903240325945764 5.950672514070325 -1.083318070175438
H 3.803240325945764 5.950672514070325 -1.083318070175438
H 2.610228986934323 6.80163923210971 -1.083318070175438
O 2.055561470483613 -5.812243394527323 -1.80554029239766
H 2.955561470483613 -5.812243394527323 -1.80554029239766
H 1.7625501314721719 -4.961276676487938 -1.80554029239766
O -4.994413111305353 3.14834752459408 -2.5277625146198823
H -4.094413111305353 3.14834752459408 -2.5277625146198823
H -5.287424450316794 3.9993142426334654 -2.5277625146198823
O 5.684643912905808 1.354434398649143 -3.249984736842106
H 6.5846439129058085 1.354434398649143 -3.249984736842106
H 5.391632573894367 2.2054011166885283 -3.249984736842106
O -2.7722899915031345 -4.063221763110671 -3.972206959064327
H -1.8722899915031346 -4.063221763110671 -3.972206959064327
H -3.0653013305145755 -3.212255045071286 -3.972206959064327
O -0.39098327361060375 4.604261760923362 -4.69442918128655
H 0.5090167263893963 4.604261760923362 -4.69442918128655
H -0.6839946126220448 5.455228478962747 -4.69442918128655
O 2.934166342061441 -2.1697612990110318 -5.416651403508771
H 3.8341663420614407 -2.1697612990110318 -5.416651403508771
H 2.6411550030499997 -1.3187945809716466 -5.416651403508771
O -1.947763096047857 0.05747343736024048 -6.1388736257309935
H -1.047763096047857 0.05747343736024048 -6.1388736257309935
H -2.240774435059298 0.9084401553996256 -6.1388736257309935



