%chk=Fe_2_M06_2_5.chk
#p M06 6-31+G(2df,p) empiricaldispersion=gd3 scf=(maxcycles=500,xqc,maxconventional=50) scrf=(cpcm,solvent=water)

Fe_2_M06_solvated_radius_4_solvated_radius_6

2 5
Fe         0.00013        0.00007       -0.00011
O          0.14693        1.69704       -1.28236
H          0.26613        2.61506       -1.00727
O         -2.13987        0.25340        0.08563
H         -2.74667       -0.16873        0.70681
O         -0.22573       -1.30875       -1.64411
H          0.48259       -1.76661       -2.11525
O         -0.14766       -1.69658        1.28268
H         -0.10966       -1.69144        2.24762
O          2.13984       -0.25454       -0.08522
H          2.67473       -0.81592        0.49014
O          0.22613        1.30931        1.64359
H         -0.48226        1.76687        2.11491
H          1.06073        1.58337        2.04571
H         -2.67548        0.81593       -0.48791
H          0.10835        1.69232       -2.24729
H          2.74729        0.16522       -0.70737
H         -1.06031       -1.58206       -2.04676
H         -0.26594       -2.61482        1.00789
O 1.7983984001896385 -4.526315789470615e-05 4.12507
H 2.6983984001896384 -4.526315789470615e-05 4.12507
H 1.5053870611781974 0.8509214548814905 4.12507
O -2.1947949314558164 -2.0106220112684547 3.37507
H -1.2947949314558165 -2.0106220112684547 3.37507
H -2.4878062704672574 -1.1596552932290696 3.37507
O 0.3195067886706588 3.6410075871785157 2.6250699999999996
H 1.2195067886706588 3.6410075871785157 2.6250699999999996
H 0.026495449659217796 4.491974305217901 2.6250699999999996
O 2.4889432191130916 -3.2464810618327964 1.87507
H 3.3889432191130915 -3.2464810618327964 1.87507
H 2.1959318801016505 -2.395514343793411 1.87507
O -4.290539716641711 0.7588840039997471 1.12507
H -3.3905397166417113 0.7588840039997471 1.12507
H -4.583551055653152 1.6098507220391323 1.12507
O 3.783653760974522 2.4068299873830634 0.3750700000000003
H 4.683653760974522 2.4068299873830634 0.3750700000000003
H 3.490642421963081 3.2577967054224484 0.3750700000000003
O -1.164194409068993 -4.33064751175631 -0.37492999999999976
H -0.26419440906899305 -4.33064751175631 -0.37492999999999976
H -1.4572057480804341 -3.479680793716925 -0.37492999999999976
O -2.008259305775619 3.8666618473125154 -1.1249299999999995
H -1.108259305775619 3.8666618473125154 -1.1249299999999995
H -2.30127064478706 4.717628565351901 -1.1249299999999995
O 3.8425061807271943 -1.4033363888095605 -1.8749300000000007
H 4.742506180727195 -1.4033363888095605 -1.8749300000000007
H 3.5494948417157532 -0.5523696707701753 -1.8749300000000007
O -3.3785656857576174 -1.3946522047887793 -2.624929999999999
H -2.4785656857576175 -1.3946522047887793 -2.624929999999999
H -3.6715770247690585 -0.5436854867493941 -2.624929999999999
O 1.2615265631708221 2.6958458308185063 -3.37493
H 2.1615265631708223 2.6958458308185063 -3.37493
H 0.9685152241593811 3.5468125488578917 -3.37493
O 0.5382047007686802 -1.7160491506278635 -4.12493
H 1.4382047007686802 -1.7160491506278635 -4.12493
H 0.24519336175723921 -0.8650824325884783 -4.12493
O 2.3231310643808527 0.14568959290590341 6.138958888888889
H 3.2231310643808526 0.14568959290590341 6.138958888888889
H 2.0301197253694117 0.9966563109452886 6.138958888888889
O -2.4626049719099288 -2.281353917319014 5.416736666666668
H -1.5626049719099289 -2.281353917319014 5.416736666666668
H -2.75561631092137 -1.4303871992796287 5.416736666666668
O 0.5798172381253928 4.624272446669331 4.6945144444444455
H 1.479817238125393 4.624272446669331 4.6945144444444455
H 0.28680589911395177 5.475239164708716 4.6945144444444455
O 3.3172120265032494 -3.937419097449895 3.972292222222223
H 4.217212026503249 -3.937419097449895 3.972292222222223
H 3.0242006874918084 -3.0864523794105096 3.972292222222223
O -5.356345888776022 1.1261885533157527 3.2500700000000013
H -4.4563458887760214 1.1261885533157527 3.2500700000000013
H -5.649357227787463 1.977155271355138 3.2500700000000013
O 5.239471206732334 3.359805196413556 2.527847777777778
H 6.139471206732335 3.359805196413556 2.527847777777778
H 4.946459867720893 4.210771914452941 2.527847777777778
O -1.4342509392918348 -5.884423486466287 1.805625555555556
H -0.5342509392918348 -5.884423486466287 1.805625555555556
H -1.7272622783032758 -5.033456768426902 1.805625555555556
O -2.7672240378778503 5.833423279607388 1.083403333333334
H -1.8672240378778504 5.833423279607388 1.083403333333334
H -3.0602353768892914 6.684389997646773 1.083403333333334
O 6.282927860768664 -2.0806178746772757 0.36118111111111195
H 7.182927860768665 -2.0806178746772757 0.36118111111111195
H 5.989916521757223 -1.2296511566378905 0.36118111111111195
O -5.812198044295621 -2.3305967639029506 -0.3610411111111102
H -4.912198044295621 -2.3305967639029506 -0.3610411111111102
H -6.105209383307062 -1.4796300458635654 -0.3610411111111102
O 2.90323453647208 5.950618829859798 -1.0832633333333324
H 3.80323453647208 5.950618829859798 -1.0832633333333324
H 2.610223197460639 6.801585547899183 -1.0832633333333324
O 2.055555681009929 -5.81229707873785 -1.8054855555555545
H 2.955555681009929 -5.81229707873785 -1.8054855555555545
H 1.7625443419984879 -4.961330360698465 -1.8054855555555545
O -4.994418900779038 3.1482938403835536 -2.5277077777777768
H -4.094418900779037 3.1482938403835536 -2.5277077777777768
H -5.287430239790479 3.9992605584229386 -2.5277077777777768
O 5.684638123432124 1.3543807144386166 -3.2499300000000004
H 6.584638123432124 1.3543807144386166 -3.2499300000000004
H 5.391626784420683 2.2053474324780016 -3.2499300000000004
O -2.7722957809768185 -4.063275447321198 -3.9721522222222214
H -1.8722957809768186 -4.063275447321198 -3.9721522222222214
H -3.0653071199882596 -3.212308729281813 -3.9721522222222214
O -0.3909890630842879 4.604208076712835 -4.694374444444444
H 0.5090109369157121 4.604208076712835 -4.694374444444444
H -0.6840004020957289 5.45517479475222 -4.694374444444444
O 2.9341605525877568 -2.169814983221558 -5.416596666666665
H 3.8341605525877567 -2.169814983221558 -5.416596666666665
H 2.6411492135763157 -1.318848265182173 -5.416596666666665
O -1.9477688855215411 0.05741975314971416 -6.1388188888888875
H -1.047768885521541 0.05741975314971416 -6.1388188888888875
H -2.240780224532982 0.9083864711890993 -6.1388188888888875



