%chk=Fe_2_O3LYP_2_5.chk
#p O3LYP 6-31+G(2df,p) scf=(maxcycles=500,xqc,maxconventional=50) scrf=(cpcm,solvent=water)

Fe_2_O3LYP_solvated_radius_4_solvated_radius_6

2 5
Fe        -0.00243       -0.00052        0.00015
O         -0.63940        1.85997        0.95245
H         -0.69197        2.02510        1.90127
O         -2.08236       -0.70109       -0.02464
H         -2.43392       -1.44693       -0.52490
O         -0.28576        0.93716       -1.91517
H          0.36532        1.46412       -2.39407
O          0.63586       -1.86014       -0.95405
H          0.90095       -2.67750       -0.51635
O          2.08287        0.69593        0.02474
H          2.43289        1.45527        0.50547
O          0.29503       -0.93050        1.91669
H         -0.34596       -1.45935        2.40697
H          1.11876       -0.95191        2.41860
H         -2.82362       -0.32699        0.46636
H         -0.93374        2.66714        0.51310
H          2.82633        0.30640       -0.44998
H         -1.10272        0.96746       -2.42755
H          0.70103       -2.01994       -1.90283
O 1.799339979137007 0.00019368421052632251 4.124803157894736
H 2.699339979137007 0.00019368421052632251 4.124803157894736
H 1.506328640125566 0.8511604022499115 4.124803157894736
O -2.193853352508448 -2.0103830639000337 3.374803157894737
H -1.2938533525084481 -2.0103830639000337 3.374803157894737
H -2.486864691519889 -1.1594163458606486 3.374803157894737
O 0.32044836761802725 3.6412465345469367 2.6248031578947364
H 1.2204483676180273 3.6412465345469367 2.6248031578947364
H 0.027437028606586256 4.492213252586322 2.6248031578947364
O 2.48988479806046 -3.2462421144643754 1.8748031578947368
H 3.38988479806046 -3.2462421144643754 1.8748031578947368
H 2.196873459049019 -2.3952753964249904 1.8748031578947368
O -4.289598137694343 0.7591229513681681 1.1248031578947368
H -3.389598137694343 0.7591229513681681 1.1248031578947368
H -4.582609476705784 1.6100896694075533 1.1248031578947368
O 3.7845953399218906 2.4070689347514844 0.37480315789473706
H 4.6845953399218905 2.4070689347514844 0.37480315789473706
H 3.4915840009104495 3.25803565279087 0.37480315789473706
O -1.1632528301216245 -4.33040856438789 -0.375196842105263
H -0.2632528301216245 -4.33040856438789 -0.375196842105263
H -1.4562641691330656 -3.4794418463485046 -0.375196842105263
O -2.0073177268282505 3.8669007946809364 -1.1251968421052627
H -1.1073177268282506 3.8669007946809364 -1.1251968421052627
H -2.3003290658396915 4.717867512720321 -1.1251968421052627
O 3.8434477596745626 -1.4030974414411395 -1.8751968421052638
H 4.743447759674563 -1.4030974414411395 -1.8751968421052638
H 3.5504364206631216 -0.5521307234017543 -1.8751968421052638
O -3.377624106810249 -1.3944132574203583 -2.6251968421052623
H -2.477624106810249 -1.3944132574203583 -2.6251968421052623
H -3.67063544582169 -0.5434465393809731 -2.6251968421052623
O 1.2624681421181907 2.6960847781869273 -3.375196842105263
H 2.1624681421181906 2.6960847781869273 -3.375196842105263
H 0.9694568031067496 3.547051496226312 -3.375196842105263
O 0.5391462797160487 -1.7158102032594424 -4.125196842105264
H 1.4391462797160486 -1.7158102032594424 -4.125196842105264
H 0.24613494070460767 -0.8648434852200573 -4.125196842105264
O 2.324072643328221 0.14592854027432442 6.138692046783626
H 3.224072643328221 0.14592854027432442 6.138692046783626
H 2.03106130431678 0.9968952583137096 6.138692046783626
O -2.4616633929625604 -2.281114969950593 5.416469824561404
H -1.5616633929625605 -2.281114969950593 5.416469824561404
H -2.7546747319740015 -1.4301482519112076 5.416469824561404
O 0.5807588170727611 4.624511394037753 4.694247602339182
H 1.4807588170727612 4.624511394037753 4.694247602339182
H 0.2877474780613201 5.475478112077138 4.694247602339182
O 3.3181536054506178 -3.937180150081474 3.9720253801169596
H 4.218153605450618 -3.937180150081474 3.9720253801169596
H 3.0251422664391767 -3.086213432042089 3.9720253801169596
O -5.3554043098286535 1.1264275006841737 3.249803157894738
H -4.455404309828653 1.1264275006841737 3.249803157894738
H -5.6484156488400945 1.977394218723559 3.249803157894738
O 5.240412785679703 3.360044143781977 2.527580935672515
H 6.140412785679703 3.360044143781977 2.527580935672515
H 4.947401446668262 4.211010861821362 2.527580935672515
O -1.4333093603444664 -5.884184539097865 1.805358713450293
H -0.5333093603444664 -5.884184539097865 1.805358713450293
H -1.7263206993559075 -5.03321782105848 1.805358713450293
O -2.766282458930482 5.833662226975809 1.083136491228071
H -1.866282458930482 5.833662226975809 1.083136491228071
H -3.059293797941923 6.684628945015194 1.083136491228071
O 6.283869439716033 -2.0803789273088547 0.3609142690058489
H 7.183869439716033 -2.0803789273088547 0.3609142690058489
H 5.990858100704592 -1.2294122092694695 0.3609142690058489
O -5.811256465348253 -2.3303578165345296 -0.36130795321637327
H -4.911256465348252 -2.3303578165345296 -0.36130795321637327
H -6.104267804359694 -1.4793910984951444 -0.36130795321637327
O 2.9041761154194483 5.95085777722822 -1.0835301754385953
H 3.8041761154194482 5.95085777722822 -1.0835301754385953
H 2.6111647764080073 6.801824495267605 -1.0835301754385953
O 2.0564972599572973 -5.812058131369429 -1.8057523976608174
H 2.956497259957297 -5.812058131369429 -1.8057523976608174
H 1.7634859209458562 -4.961091413330044 -1.8057523976608174
O -4.993477321831669 3.1485327877519746 -2.52797461988304
H -4.093477321831669 3.1485327877519746 -2.52797461988304
H -5.28648866084311 3.99949950579136 -2.52797461988304
O 5.685579702379492 1.3546196618070376 -3.2501968421052636
H 6.585579702379492 1.3546196618070376 -3.2501968421052636
H 5.392568363368051 2.205586379846423 -3.2501968421052636
O -2.77135420202945 -4.063036499952776 -3.9724190643274846
H -1.8713542020294502 -4.063036499952776 -3.9724190643274846
H -3.064365541040891 -3.2120697819133914 -3.9724190643274846
O -0.39004748413691953 4.6044470240812565 -4.694641286549707
H 0.5099525158630804 4.6044470240812565 -4.694641286549707
H -0.6830588231483605 5.4554137421206415 -4.694641286549707
O 2.935102131535125 -2.169576035853137 -5.416863508771929
H 3.835102131535125 -2.169576035853137 -5.416863508771929
H 2.642090792523684 -1.318609317813752 -5.416863508771929
O -1.9468273065741728 0.05765870051813517 -6.139085730994151
H -1.0468273065741727 0.05765870051813517 -6.139085730994151
H -2.2398386455856136 0.9086254185575203 -6.139085730994151



