%chk=Fe_2_wB97_2_5.chk
#p wB97 6-31+G(2df,p) scf=(maxcycles=500,xqc,maxconventional=50) scrf=(cpcm,solvent=water)

Fe_2_wB97_solvated_radius_4_solvated_radius_6

2 5
Fe        -0.00000       -0.00000       -0.00000
O         -0.00613        1.55643        1.44893
H         -0.00814        2.50538        1.26795
O          2.16888        0.00341        0.00510
H          2.74628       -0.42123       -0.64193
O         -0.00145       -1.48411        1.51570
H         -0.78005       -1.90056        1.90787
O          0.00615       -1.55644       -1.44893
H          0.00793       -1.44491       -2.40848
O         -2.16888       -0.00341       -0.00511
H         -2.74187       -0.43005       -0.65474
O          0.00145        1.48412       -1.51570
H          0.78007        1.90056       -1.90786
H         -0.77661        1.89691       -1.91280
H          2.74186        0.43009        0.65472
H         -0.00789        1.44490        2.40849
H         -2.74628        0.42119        0.64196
H          0.77662       -1.89690        1.91279
H          0.00808       -2.50538       -1.26795
O 1.7984378738738491 0.0 4.125000526315789
H 2.698437873873849 0.0 4.125000526315789
H 1.505426534862408 0.8509667180393852 4.125000526315789
O -2.194755457771606 -2.01057674811056 3.3750005263157896
H -1.2947554577716063 -2.01057674811056 3.3750005263157896
H -2.4877667967830472 -1.159610030071175 3.3750005263157896
O 0.3195462623548694 3.6410528503364104 2.625000526315789
H 1.2195462623548694 3.6410528503364104 2.625000526315789
H 0.026534923343428385 4.492019568375795 2.625000526315789
O 2.4889826927973018 -3.2464357986749017 1.8750005263157894
H 3.3889826927973017 -3.2464357986749017 1.8750005263157894
H 2.1959713537858607 -2.3954690806355163 1.8750005263157894
O -4.2905002429575 0.7589292671576418 1.1250005263157894
H -3.3905002429575 0.7589292671576418 1.1250005263157894
H -4.583511581968941 1.609895985197027 1.1250005263157894
O 3.7836932346587324 2.406875250540958 0.3750005263157898
H 4.683693234658732 2.406875250540958 0.3750005263157898
H 3.4906818956472914 3.257841968580343 0.3750005263157898
O -1.1641549353847824 -4.3306022485984155 -0.37499947368421027
H -0.2641549353847824 -4.3306022485984155 -0.37499947368421027
H -1.4571662743962235 -3.4796355305590305 -0.37499947368421027
O -2.0082198320914086 3.86670711047041 -1.1249994736842102
H -1.1082198320914087 3.86670711047041 -1.1249994736842102
H -2.3012311711028497 4.717673828509795 -1.1249994736842102
O 3.8425456544114045 -1.4032911256516658 -1.8749994736842113
H 4.742545654411405 -1.4032911256516658 -1.8749994736842113
H 3.5495343153999634 -0.5523244076122806 -1.8749994736842113
O -3.378526212073407 -1.3946069416308846 -2.6249994736842095
H -2.4785262120734073 -1.3946069416308846 -2.6249994736842095
H -3.6715375510848482 -0.5436402235914994 -2.6249994736842095
O 1.2615660368550328 2.695891093976401 -3.3749994736842104
H 2.161566036855033 2.695891093976401 -3.3749994736842104
H 0.9685546978435917 3.5468578120157863 -3.3749994736842104
O 0.5382441744528907 -1.7160038874699688 -4.124999473684211
H 1.4382441744528909 -1.7160038874699688 -4.124999473684211
H 0.24523283544144975 -0.8650371694305836 -4.124999473684211
O 2.323170538065063 0.1457348560637981 6.138889415204678
H 3.223170538065063 0.1457348560637981 6.138889415204678
H 2.030159199053622 0.9967015741031833 6.138889415204678
O -2.4625654982257186 -2.281308654161119 5.416667192982456
H -1.5625654982257187 -2.281308654161119 5.416667192982456
H -2.7555768372371596 -1.430341936121734 5.416667192982456
O 0.5798567118096032 4.624317709827226 4.694444970760234
H 1.479856711809603 4.624317709827226 4.694444970760234
H 0.2868453727981622 5.475284427866611 4.694444970760234
O 3.3172515001874596 -3.9373738342920004 3.972222748538011
H 4.2172515001874595 -3.9373738342920004 3.972222748538011
H 3.0242401611760186 -3.086407116252615 3.972222748538011
O -5.356306415091812 1.1262338164736474 3.2500005263157896
H -4.456306415091811 1.1262338164736474 3.2500005263157896
H -5.649317754103253 1.9772005345130326 3.2500005263157896
O 5.239510680416545 3.3598504595714505 2.5277783040935664
H 6.139510680416546 3.3598504595714505 2.5277783040935664
H 4.946499341405104 4.210817177610836 2.5277783040935664
O -1.4342114656076244 -5.884378223308392 1.8055560818713445
H -0.5342114656076243 -5.884378223308392 1.8055560818713445
H -1.7272228046190654 -5.033411505269007 1.8055560818713445
O -2.76718456419364 5.833468542765283 1.0833338596491224
H -1.8671845641936402 5.833468542765283 1.0833338596491224
H -3.060195903205081 6.684435260804668 1.0833338596491224
O 6.282967334452875 -2.080572611519381 0.36111163742690033
H 7.182967334452876 -2.080572611519381 0.36111163742690033
H 5.989955995441434 -1.2296058934799958 0.36111163742690033
O -5.812158570611411 -2.330551500745056 -0.3611105847953218
H -4.91215857061141 -2.330551500745056 -0.3611105847953218
H -6.105169909622852 -1.4795847827056707 -0.3611105847953218
O 2.90327401015629 5.950664093017693 -1.0833328070175439
H 3.80327401015629 5.950664093017693 -1.0833328070175439
H 2.610262671144849 6.801630811057078 -1.0833328070175439
O 2.055595154694139 -5.812251815579955 -1.805555029239766
H 2.955595154694139 -5.812251815579955 -1.805555029239766
H 1.762583815682698 -4.9612850975405705 -1.805555029239766
O -4.994379427094827 3.1483391035414483 -2.5277772514619885
H -4.094379427094827 3.1483391035414483 -2.5277772514619885
H -5.2873907661062685 3.9993058215808333 -2.5277772514619885
O 5.684677597116334 1.3544259775965113 -3.249999473684212
H 6.584677597116334 1.3544259775965113 -3.249999473684212
H 5.391666258104893 2.2053926956358962 -3.249999473684212
O -2.7722563072926083 -4.063230184163302 -3.972221695906433
H -1.8722563072926084 -4.063230184163302 -3.972221695906433
H -3.0652676463040494 -3.2122634661239173 -3.972221695906433
O -0.3909495894000775 4.604253339870731 -4.6944439181286555
H 0.5090504105999225 4.604253339870731 -4.6944439181286555
H -0.6839609284115185 5.4552200579101155 -4.6944439181286555
O 2.934200026271967 -2.1697697200636634 -5.416666140350877
H 3.834200026271967 -2.1697697200636634 -5.416666140350877
H 2.641188687260526 -1.3188030020242782 -5.416666140350877
O -1.9477294118373307 0.05746501630760885 -6.138888362573099
H -1.0477294118373308 0.05746501630760885 -6.138888362573099
H -2.240740750848772 0.908431734346994 -6.138888362573099



