31
Fe_CN6_minus3_LS.log	Energy: -1429577.4024159
Fe         0.00057       -0.30588       -0.08858
C         -1.31990       -1.28259       -1.10234
C         -1.43751        0.31552        1.03941
C          0.27404       -1.87927        0.99683
C          1.30041        0.67704        0.94799
C          1.42544       -0.90014       -1.24863
C         -0.24754        1.29016       -1.14586
N         -2.13414       -1.87178       -1.72316
N         -2.31454        0.70844        1.72664
N          0.44953       -2.82864        1.67751
N          2.08212        1.28166        1.59534
N          2.28972       -1.25012       -1.97389
N         -0.38871        2.27204       -1.78766
H          0.90348        4.94415       -1.68212
H         -0.06528        3.91582       -2.26035
H          1.89331        3.34721        3.72465
H          2.65424        2.42592        2.77352
H         -3.86662        3.23984        1.75919
H         -3.50451        1.85130        2.27963
H          1.17901       -3.82588        2.90127
H          2.33134       -3.54142        3.86133
H         -3.73223       -2.35526       -2.21315
H         -5.10282       -1.92319       -1.69946
H          3.84651        0.01888       -4.16339
H          3.47645       -1.14075       -3.24199
O         -4.13483        2.62313        2.45923
O          2.80853        3.12199        3.49291
O          1.71299       -4.25786        3.64602
O         -4.72035       -2.51865       -2.36377
O          4.10336       -0.90294       -4.00116
O          0.24464        4.87068       -2.39123
