31
Fe_CN6_minus2_LS.log	Energy: -1429452.3734383
Fe        -0.11178        0.15553       -0.10225
C         -1.46518        0.17981       -1.45769
C          1.25137        0.10646       -1.44612
C         -0.06226        2.07049       -0.10018
C          1.24118        0.13745        1.25165
C         -1.47987        0.17282        1.23750
C         -0.13830       -1.75832       -0.08287
N         -2.30964        0.19553       -2.29632
N          2.10353        0.06863       -2.27638
N         -0.02667        3.26016       -0.09407
N          2.08676        0.12604        2.08959
N         -2.33560        0.17630        2.06494
N         -0.14948       -2.94862       -0.06556
H          1.32055       -4.99961        1.31705
H          0.26515       -4.44814        0.34623
H          4.96120        0.00090        2.09442
H          3.56398        0.08439        2.72750
H          3.59542       -2.00391       -3.60037
H          3.18186       -0.55643       -3.29382
H          0.44699        4.74839        0.28832
H          1.54446        5.27452        1.22593
H         -3.78176        0.20346       -2.94377
H         -5.18470        0.16534       -2.31927
H         -3.80198       -1.82470        3.52013
H         -3.41438       -0.39513        3.11233
O          3.83601       -1.11130       -3.89733
O          4.57950        0.04926        2.98594
O          0.86801        5.64450        0.63574
O         -4.79690        0.20227       -3.20868
O         -4.06517       -0.91812        3.74736
O          0.64674       -5.35302        0.71381
