31
Fe_CN6_minus3_HS.log	Energy: -1429505.8544514
Fe         0.08950       -0.12631        0.07949
C         -1.44442       -0.15554        1.64952
C          1.21678        1.41221        1.16666
C          1.20001       -1.71080        1.10881
C          1.62380       -0.10426       -1.49022
C         -1.07038       -1.61205       -1.04529
C         -1.02662        1.46633       -0.94665
N         -2.29326       -0.16033        2.46982
N          1.81617        2.26421        1.72192
N          1.82291       -2.55918        1.64323
N          2.47326       -0.08046       -2.30956
N         -1.72514       -2.39897       -1.63309
N         -1.64935        2.30410       -1.49792
H         -3.94385        2.50464       -3.40204
H         -2.85043        3.09064       -2.51078
H          5.06732        1.31713       -2.80252
H          3.95754        0.32975       -3.15748
H          1.99413        5.24516        1.71615
H          2.39699        3.85289        2.19755
H          3.10807       -3.70054        2.01752
H          4.43358       -3.97425        1.31034
H         -3.78529        0.20079        3.32617
H         -4.92300        1.16139        2.98590
H         -4.39492       -3.71668       -1.38405
H         -3.06118       -3.45093       -2.07915
O          2.60809        4.83031        2.34280
O          4.84039        0.68171       -3.50006
O          3.93033       -4.28396        2.08015
O         -4.67622        0.52471        3.67548
O         -3.90996       -3.98965       -2.17910
O         -3.59678        3.36976       -3.13203
