%chk=deferipronate_ox_low_spin.chk
#p B3LYP empiricaldispersion=gd3 scrf=(cpcm,solvent=water) scf=(maxcycles=500,xqc,maxconventional=50)

deferipronate ox low_spin spin

0 2
C          1.20794        3.64635       -1.36642
C          0.93241        2.28605       -0.71834
C          1.61722        1.75690        0.55490
O          0.97759        0.67109        1.05245
C          2.74721        2.24174        1.21668
C          3.70054        3.32238        0.94670
N          3.67432        4.15889       -0.08727
C          4.82611        5.14494       -0.11070
O          0.02237        1.51093       -1.19806
H          1.04277        3.58005       -2.45218
H          0.49008        4.37217       -0.94449
H          2.24529        3.96783       -1.08723
H          3.00087        1.65201        2.10893
H          4.51042        3.38055        1.70495
H          4.41035        6.17026       -0.10234
H          5.52778        5.03149        0.73806
H          5.38095        5.01318       -1.05887
Fe        -0.25083       -0.21606        0.00762
C          2.75063       -2.64320       -0.77965
C          1.22160       -2.26762       -0.81648
C          0.59831       -2.59794        0.55191
O         -0.21621       -1.55293        0.96331
C          1.07876       -3.65264        1.35840
C          2.17745       -4.38896        0.91078
N          2.86858       -4.07837       -0.30935
C          4.27267       -4.60714       -0.40877
O          0.97773       -0.84709       -0.99173
H          3.19963       -2.57133       -1.78768
H          3.28450       -1.94498       -0.09824
H          0.73656       -2.85256       -1.63734
H          0.60602       -3.89492        2.31635
H          2.53620       -5.28292        1.43709
H          4.98320       -4.04578        0.23295
H          4.27757       -5.66819       -0.10635
H          4.60793       -4.53137       -1.45831
C         -3.91332       -0.94879       -1.60144
C         -2.78165       -0.41304       -0.73478
C         -2.80674        0.43953        0.40284
O         -1.48995        0.66766        0.83859
C         -3.84561        1.08510        1.14176
C         -5.27453        1.07019        0.96928
N         -5.93035        0.39782       -0.00382
C         -7.43769        0.56732        0.07523
O         -1.48325       -0.73452       -1.07136
H         -3.79199       -0.60890       -2.64385
H         -3.91063       -2.05190       -1.59764
H         -4.86242       -0.55466       -1.16733
H         -3.47711        1.69223        1.98060
H         -5.82913        1.67261        1.71821
H         -7.89770       -0.43279        0.18778
H         -7.77790        1.21476        0.90640
H         -7.79350        0.99424       -0.88163
O 2.64260279977642 0.0830705769230766 9.33679838641405
H 3.54260279977642 0.0830705769230766 9.33679838641405
H 2.349591460764979 0.9340372949624618 9.33679838641405
O -3.0672413627096082 -2.827561274447927 8.66590086430755
H -2.1672413627096083 -2.827561274447927 8.66590086430755
H -3.3602527017210493 -1.9765945564085416 8.66590086430755
O 0.5874267390443237 5.5228719410866 7.995003342201053
H 1.4874267390443237 5.5228719410866 7.995003342201053
H 0.29441540003288275 6.373838659125985 7.995003342201053
O 3.9663773099134283 -4.946864396095223 7.324105820094555
H 4.866377309913428 -4.946864396095223 7.324105820094555
H 3.6733659709019872 -4.095897678055838 7.324105820094555
O -6.826719099163534 1.3100820854272526 6.653208297988058
H -5.926719099163534 1.3100820854272526 6.653208297988058
H -7.119730438174975 2.1610488034666377 6.653208297988058
O 6.5456043646787725 4.176862440021814 5.98231077588156
H 7.445604364678773 4.176862440021814 5.98231077588156
H 6.252593025667331 5.027829158061199 5.98231077588156
O -1.9962593768398325 -7.752184433764525 5.311413253775061
H -1.0962593768398325 -7.752184433764525 5.311413253775061
H -2.2892707158512735 -6.90121771572514 5.311413253775061
O -3.8166043508736798 7.643547194195875 4.640515731668564
H -2.91660435087368 7.643547194195875 4.640515731668564
H -4.10961568988512 8.494513912235261 4.640515731668564
O 8.428744854771033 -2.954914327706884 3.9696182095620647
H 9.328744854771033 -2.954914327706884 3.9696182095620647
H 8.135733515759592 -2.1039476096674985 3.9696182095620647
O -8.330508564293282 -3.4010569948633487 3.298720687455567
H -7.430508564293282 -3.4010569948633487 3.298720687455567
H -8.623519903304723 -2.5500902768239637 3.298720687455567
O 4.073209206755395 8.55217530114093 2.627823165349069
H 4.973209206755396 8.55217530114093 2.627823165349069
H 3.7801978677439543 9.403142019180315 2.627823165349069
O 2.958462550220055 -8.998212511046336 1.9569256432425712
H 3.858462550220055 -8.998212511046336 1.9569256432425712
H 2.665451211208614 -8.14724579300695 1.9569256432425712
O -8.226317598079554 4.914148723733914 1.2860281211360745
H -7.326317598079553 4.914148723733914 1.2860281211360745
H -8.519328937090995 5.765115441773299 1.2860281211360745
O 9.588514124451812 2.1668908786393217 0.6151305990295749
H 10.488514124451813 2.1668908786393217 0.6151305990295749
H 9.295502785440371 3.0178575966787067 0.6151305990295749
O -5.4848469867478125 -7.87505225484032 -0.05576692307692247
H -4.584846986747812 -7.87505225484032 -0.05576692307692247
H -5.7778583257592535 -7.024085536800935 -0.05576692307692247
O -1.13715704538518 9.707451243195502 -0.72666444518342
H -0.23715704538518 9.707451243195502 -0.72666444518342
H -1.430168384396621 10.558417961234888 -0.72666444518342
O 7.47743781860019 -6.1261967982047185 -1.3975619672899195
H 8.37743781860019 -6.1261967982047185 -1.3975619672899195
H 7.184426479588749 -5.275230080165334 -1.3975619672899195
O -9.399379678795977 -0.3101729629375426 -2.0684594893964166
H -8.499379678795977 -0.3101729629375426 -2.0684594893964166
H -9.692391017807418 0.5407937551018426 -2.0684594893964166
O 6.737958124261343 6.678754071768631 -2.739357011502916
H 7.637958124261344 6.678754071768631 -2.739357011502916
H 6.444946785249902 7.529720789808016 -2.739357011502916
O -0.3117703655413981 -9.038539113959326 -3.4102545336094123
H 0.588229634458602 -9.038539113959326 -3.4102545336094123
H -0.6047817045528391 -8.18757239591994 -3.4102545336094123
O -5.564164973654975 6.882640783414407 -4.0811520557159096
H -4.664164973654975 6.882640783414407 -4.0811520557159096
H -5.857176312666416 7.733607501453792 -4.0811520557159096
O 8.553279399421093 -1.052958007637114 -4.752049577822409
H 9.453279399421094 -1.052958007637114 -4.752049577822409
H 8.260268060409652 -0.20199128959772872 -4.752049577822409
O -6.549950816153677 -4.55076378269397 -5.422947099928906
H -5.649950816153677 -4.55076378269397 -5.422947099928906
H -6.842962155165118 -3.699797064654585 -5.422947099928906
O 1.784072888316569 7.524402650485713 -6.093844622035405
H 2.684072888316569 7.524402650485713 -6.093844622035405
H 1.491061549305128 8.375369368525098 -6.093844622035405
O 3.6123730713636717 -6.029002193456114 -6.764742144141902
H 4.512373071363672 -6.029002193456114 -6.764742144141902
H 3.3193617323522306 -5.1780354754167295 -6.764742144141902
O -5.928258766934596 2.0094462572286855 -7.435639666248401
H -5.028258766934596 2.0094462572286855 -7.435639666248401
H -6.221270105946037 2.860412975268071 -7.435639666248401
O 5.067204495277303 2.3734154589908414 -8.106537188354901
H 5.967204495277303 2.3734154589908414 -8.106537188354901
H 4.774193156265862 3.2243821770302263 -8.106537188354901
O -1.553485104489456 -3.891790287400878 -8.777434710461398
H -0.653485104489456 -3.891790287400878 -8.777434710461398
H -1.846496443500897 -3.0408235693614927 -8.777434710461398
O -0.7471381641482876 2.4661891672602856 -9.448332232567894
H 0.15286183585171242 2.4661891672602856 -9.448332232567894
H -1.0401495031597285 3.3171558852996705 -9.448332232567894


