%chk=kojate_ox_low_spin.chk
#p B3LYP empiricaldispersion=gd3 scrf=(cpcm,solvent=water) scf=(maxcycles=500,xqc,maxconventional=50) 6-31+G(2df,p)  

kojate ox low_spin spin

0 2
C         -3.11808        2.37294        0.81708
C         -3.52211        3.54914        0.20999
O         -2.90917        4.11096       -0.90952
C         -1.81036        3.41085       -1.46352
C         -1.32437        2.22252       -0.93126
C         -1.99019        1.65059        0.27956
O         -1.47834        0.52514        0.72681
O         -0.29595        1.48585       -1.40673
C         -4.71335        4.41375        0.72712
O         -4.96021        4.22669        2.15839
H         -3.66716        2.02290        1.69990
H         -1.40631        3.92341       -2.34791
H         -4.51717        5.47403        0.43713
H         -5.64461        4.09229        0.21036
H         -4.09492        4.60008        2.57044
Fe         0.08572        0.05594       -0.38992
C         -0.61185       -3.87700        0.77064
C         -1.41894       -4.79636        0.12108
O         -2.14536       -4.52331       -1.03104
C         -2.03174       -3.22614       -1.58286
C         -1.24207       -2.22038       -1.01831
C         -0.48729       -2.54385        0.23366
O          0.22215       -1.55947        0.73736
O         -1.08925       -0.96970       -1.47181
C         -1.63214       -6.25724        0.62600
O         -1.46413       -6.37922        2.07579
H         -0.08761       -4.18757        1.68269
H         -2.63863       -3.12150       -2.49254
H         -2.62661       -6.60468        0.25575
H         -0.85705       -6.91299        0.17149
H         -2.23705       -5.79761        2.42570
C          3.49578        1.57751        0.96278
C          4.75498        1.44585        0.38399
O          5.03180        0.68419       -0.80471
C          3.89092        0.03546       -1.39390
C          2.62501        0.15673       -0.86448
C          2.38766        0.94673        0.33788
O          1.04767        0.93173        0.69329
O          1.44368       -0.42842       -1.31474
C          6.06873        2.00858        0.95263
O          6.92342        0.97313        1.57654
H          3.38758        2.16857        1.88066
H          4.16201       -0.53877       -2.28906
H          6.61991        2.54196        0.13910
H          5.83620        2.74295        1.74981
H          7.00882        0.30381        0.79898
O 2.4101001108388216 0.01543630434782581 8.66108016435473
H 3.3101001108388215 0.01543630434782581 8.66108016435473
H 2.1170887718273805 0.866403022387211 8.66108016435473
O -3.0675473986833013 -2.7741765218499865 7.979846429467221
H -2.1675473986833014 -2.7741765218499865 7.979846429467221
H -3.3605587376947423 -1.9232098038106014 7.979846429467221
O 0.4341075967310795 5.217000875826317 7.298612694579712
H 1.3341075967310796 5.217000875826317 7.298612694579712
H 0.14109625771963852 6.067967593865702 7.298612694579712
O 3.6558348099157008 -4.782157751298602 6.617378959692204
H 4.555834809915701 -4.782157751298602 6.617378959692204
H 3.3628234709042597 -3.931191033259217 6.617378959692204
O -6.620682682391168 1.1825812193600762 5.9361452248046955
H -5.720682682391168 1.1825812193600762 5.9361452248046955
H -6.913694021402609 2.0335479373994616 5.9361452248046955
O 6.080996472446619 3.897911736078871 5.254911489917187
H 6.980996472446619 3.897911736078871 5.254911489917187
H 5.7879851334351775 4.748878454118256 5.254911489917187
O -2.0134401992026074 -7.3911679589606285 4.573677755029678
H -1.1134401992026075 -7.3911679589606285 4.573677755029678
H -2.3064515382140485 -6.5402012409212436 4.573677755029678
O -3.720893819148117 7.1366786746663955 3.8924440201421695
H -2.820893819148117 7.1366786746663955 3.8924440201421695
H -4.013905158159558 7.9876453927057804 3.8924440201421695
O 7.781996226839003 -2.8347133460847664 3.21121028525466
H 8.681996226839003 -2.8347133460847664 3.21121028525466
H 7.488984887827562 -1.9837466280453813 3.21121028525466
O -7.90616691221832 -3.238871840567307 2.5299765503671527
H -7.00616691221832 -3.238871840567307 2.5299765503671527
H -8.19917825122976 -2.387905122527922 2.5299765503671527
O 3.6611435188766963 7.886935336376641 1.8487428154796413
H 4.561143518876697 7.886935336376641 1.8487428154796413
H 3.3681321798652553 8.737902054416026 1.8487428154796413
O 2.6103757954851297 -8.378238689101678 1.1675090805921347
H 3.5103757954851296 -8.378238689101678 1.1675090805921347
H 2.3173644564736886 -7.5272719710622935 1.1675090805921347
O -7.679065188528039 4.452635576940011 0.4862753457046246
H -6.779065188528039 4.452635576940011 0.4862753457046246
H -7.97207652753948 5.303602294979396 0.4862753457046246
O 8.620687525159827 1.9155928436872922 -0.1949583891828844
H 9.520687525159827 1.9155928436872922 -0.1949583891828844
H 8.327676186148386 2.7665595617266776 -0.1949583891828844
O -5.081740099558673 -7.18096735145307 -0.8761921240703946
H -4.181740099558673 -7.18096735145307 -0.8761921240703946
H -5.374751438570114 -6.330000633413685 -0.8761921240703946
O -1.1392435724045047 8.634111529823334 -1.5574258589579009
H -0.23924357240450467 8.634111529823334 -1.5574258589579009
H -1.4322549114159457 9.48507824786272 -1.5574258589579009
O 6.4993275412455205 -5.481074876652746 -2.2386595938454104
H 7.399327541245521 -5.481074876652746 -2.2386595938454104
H 6.206316202234079 -4.6301081586133614 -2.2386595938454104
O -8.323834264740839 -0.327854442799243 -2.9198933287329214
H -7.423834264740838 -0.327854442799243 -2.9198933287329214
H -8.61684560375228 0.5231122752401423 -2.9198933287329214
O 5.665540836797285 5.675688053930173 -3.60112706362043
H 6.565540836797285 5.675688053930173 -3.60112706362043
H 5.372529497785844 6.526654771969558 -3.60112706362043
O -0.37665867536858816 -7.645931619729423 -4.2823607985079395
H 0.5233413246314118 -7.645931619729423 -4.2823607985079395
H -0.6696700143800292 -6.794964901690038 -4.2823607985079395
O -4.657023812700673 5.569275517633451 -4.963594533395445
H -3.7570238127006728 5.569275517633451 -4.963594533395445
H -4.950035151712114 6.420242235672836 -4.963594533395445
O 6.618490249154009 -0.8780848576194773 -5.644828268282957
H 7.518490249154009 -0.8780848576194773 -5.644828268282957
H 6.325478910142568 -0.027118139580092127 -5.644828268282957
O -4.984766562311914 -3.4372554507909854 -6.326062003170467
H -4.084766562311914 -3.4372554507909854 -6.326062003170467
H -5.277777901323355 -2.5862887327516004 -6.326062003170467
O 1.1236437645881108 5.109675154098803 -7.007295738057974
H 2.023643764588111 5.109675154098803 -7.007295738057974
H 0.8306324255766697 5.960641872138188 -7.007295738057974
O 2.030846841658566 -3.5677372761707566 -7.688529472945484
H 2.930846841658566 -3.5677372761707566 -7.688529472945484
H 1.7378355026471248 -2.7167705581313717 -7.688529472945484
O -2.339807457192226 0.7547554026661442 -8.36976320783299
H -1.439807457192226 0.7547554026661442 -8.36976320783299
H -2.632818796203667 1.6057221207055292 -8.36976320783299


