%chk=maltolate_red_low_spin.chk
#p B3LYP empiricaldispersion=gd3 scrf=(cpcm,solvent=water) scf=(maxcycles=500,xqc,maxconventional=50)

maltolate red low_spin spin

-1 1
C          2.20441        3.61796        2.17380
C          2.56991        2.85178        0.90978
C          1.79433        1.85081        0.32835
C          2.27200        1.18309       -0.90644
O          1.41600        0.25472       -1.34492
C          3.53440        1.59477       -1.46061
C          4.23770        2.59093       -0.81716
O          3.83861        3.26457        0.35288
O          0.60509        1.37719        0.75545
H          2.95074        3.48147        2.97793
H          2.10540        4.70442        1.99386
H          1.23510        3.23223        2.52765
H          3.94476        1.13906       -2.36940
H          5.21070        2.96687       -1.16829
Fe        -0.00003        0.00008       -0.39694
C         -4.23528        0.09986        2.17404
C         -3.75468        0.79956        0.90998
C         -2.50000        0.62856        0.32855
C         -2.16077        1.37600       -0.90634
O         -0.92877        1.09902       -1.34490
C         -3.14868        2.26319       -1.46054
C         -4.36305        2.37404       -0.81709
O         -4.74673        1.69161        0.35302
O         -1.49508       -0.16432        0.75575
H         -4.49066        0.81443        2.97806
H         -5.12637       -0.52955        1.99408
H         -3.41632       -0.54630        2.52804
H         -2.95934        2.84637       -2.36940
H         -5.17525        3.02851       -1.16827
C          2.03171       -3.71774        2.17355
C          1.18508       -3.65130        0.90975
C          0.70577       -2.47920        0.32838
C         -0.11159       -2.55913       -0.90622
O         -0.48776       -1.35367       -1.34468
C         -0.38626       -3.85828       -1.46029
C          0.12507       -4.96537       -0.81695
O          0.90826       -4.95646        0.35293
O          0.89021       -1.21246        0.75542
H          1.54071       -4.29607        2.97773
H          3.02219       -4.17492        1.99330
H          2.18212       -2.68544        2.52748
H         -0.98628       -3.98589       -2.36895
H         -0.03579       -5.99600       -1.16804
O 2.2941227615784534 -2.3255813953599417e-05 7.790219671225805
H 3.1941227615784533 -2.3255813953599417e-05 7.790219671225805
H 2.0011114225670124 0.8509434622254316 7.790219671225805
O -2.864029769761116 -2.623742794035708 7.1062553670763124
H -1.9640297697611162 -2.623742794035708 7.1062553670763124
H -3.157041108772557 -1.7727760759963227 7.1062553670763124
O 0.42811149504514506 4.877667738591105 6.4222910629268215
H 1.3281114950451451 4.877667738591105 6.4222910629268215
H 0.13510015603370407 5.72863445663049 6.4222910629268215
O 3.4380037871910583 -4.484242465375028 5.738326758777329
H 4.338003787191059 -4.484242465375028 5.738326758777329
H 3.144992448179617 -3.6332757473356434 5.738326758777329
O -6.145155067604753 1.0869746488505185 5.054362454627838
H -5.2451550676047525 1.0869746488505185 5.054362454627838
H -6.438166406616194 1.9379413668899037 5.054362454627838
O 5.661781896365919 3.601515565547332 4.370398150478347
H 6.561781896365919 3.601515565547332 4.370398150478347
H 5.368770557354478 4.4524822835867175 4.370398150478347
O -1.8388034025015354 -6.840416945346188 3.686433846328854
H -0.9388034025015354 -6.840416945346188 3.686433846328854
H -2.1318147415129762 -5.989450227306803 3.686433846328854
O -3.3989012715581057 6.544425063345417 3.002469542179362
H -2.498901271558106 6.544425063345417 3.002469542179362
H -3.691912610569547 7.395391781384802 3.002469542179362
O 7.132525068490261 -2.604796552309766 2.3185052380298727
H 8.03252506849026 -2.604796552309766 2.3185052380298727
H 6.83951372947882 -1.7538298342703806 2.3185052380298727
O -7.159690555700806 -2.9554546051235606 1.6345409338803798
H -6.259690555700805 -2.9554546051235606 1.6345409338803798
H -7.452701894712247 -2.1044878870841757 1.6345409338803798
O 3.321207281074569 7.0971252731505325 0.9505766297308889
H 4.2212072810745696 7.0971252731505325 0.9505766297308889
H 3.028195942063128 7.9480919911899175 0.9505766297308889
O 2.3540807652003215 -7.5050865396082225 0.2666123255813959
H 3.2540807652003214 -7.5050865396082225 0.2666123255813959
H 2.0610694261888804 -6.6541198215688375 0.2666123255813959
O -6.779581351988728 3.928904008376451 -0.4173519785680954
H -5.879581351988728 3.928904008376451 -0.4173519785680954
H -7.072592691000169 4.779870726415836 -0.4173519785680954
O 7.565099564200579 1.6631345834968132 -1.101316282717588
H 8.465099564200578 1.6631345834968132 -1.101316282717588
H 7.272088225189138 2.5141013015361984 -1.101316282717588
O -4.367056767220444 -6.211764387341002 -1.785280586867081
H -3.4670567672204444 -6.211764387341002 -1.785280586867081
H -4.660068106231885 -5.360797669301617 -1.785280586867081
O -0.9476595276571687 7.313283466411854 -2.4692448910165705
H -0.04765952765716863 7.313283466411854 -2.4692448910165705
H -1.2406708666686097 8.16425018445124 -2.4692448910165705
O 5.416230714861636 -4.564797268279393 -3.1532091951660624
H 6.316230714861637 -4.564797268279393 -3.1532091951660624
H 5.123219375850195 -3.713830550240008 -3.1532091951660624
O -6.704407497379431 -0.2772730741082558 -3.8371734993155564
H -5.80440749737943 -0.2772730741082558 -3.8371734993155564
H -6.997418836390872 0.5736936439311293 -3.8371734993155564
O 4.423549550389382 4.401962807521635 -4.521137803465047
H 5.323549550389382 4.401962807521635 -4.521137803465047
H 4.1305382113779405 5.2529295255610196 -4.521137803465047
O -0.2609667501605546 -5.644464457928124 -5.205102107614538
H 0.6390332498394454 -5.644464457928124 -5.205102107614538
H -0.5539780891719956 -4.793497739888739 -5.205102107614538
O -3.1371566676091294 3.759382937484694 -5.8890664117640315
H -2.2371566676091295 3.759382937484694 -5.8890664117640315
H -3.4301680066205704 4.610349655524079 -5.8890664117640315
O 3.849519414791554 -0.5179657046129463 -6.573030715913524
H 4.749519414791554 -0.5179657046129463 -6.573030715913524
H 3.556508075780113 0.33300101342643884 -6.573030715913524
O -1.8830828889074203 -1.3102488480893029 -7.256995020063014
H -0.9830828889074202 -1.3102488480893029 -7.256995020063014
H -2.176094227918861 -0.4592821300499177 -7.256995020063014


