%chk=maltolate_ox_low_spin.chk
#p B3LYP empiricaldispersion=gd3 scrf=(cpcm,solvent=water) scf=(maxcycles=500,xqc,maxconventional=50) 6-31+G(2df,p)  

maltolate ox low_spin spin

0 2
C          0.75144        4.22140        2.04482
C          1.40202        3.57515        0.82647
C          1.06889        2.33735        0.29962
C          1.75613        1.80798       -0.88078
O          1.29514        0.57757       -1.24957
C          2.76824        2.61349       -1.48334
C          3.05853        3.84161       -0.91022
O          2.43190        4.38458        0.23838
O          0.08294        1.48687        0.75442
H          1.49096        4.41634        2.84119
H          0.27105        5.18110        1.78508
H         -0.01489        3.53126        2.43085
H          3.31629        2.28701       -2.37546
H          3.82541        4.52983       -1.29529
Fe         0.02092        0.01131       -0.18370
C         -4.06607       -1.43969        2.11809
C         -3.85171       -0.60672        0.85893
C         -2.59745       -0.26769        0.33143
C         -2.53290        0.55386       -0.90742
O         -1.31933        0.82841       -1.34170
C         -3.77979        0.96443       -1.50868
C         -4.96211        0.57689       -0.90725
O         -5.05955       -0.18658        0.24752
O         -1.40875       -0.62444        0.84592
H         -4.61751       -0.87273        2.88823
H         -4.63029       -2.36332        1.90063
H         -3.07349       -1.70865        2.51242
H         -3.80088        1.57030       -2.42196
H         -5.96120        0.84296       -1.29141
C          3.28658       -2.62622        2.12217
C          2.46596       -2.90608        0.86723
C          1.51361       -2.05303        0.32922
C          0.76794       -2.42149       -0.89265
O         -0.12441       -1.51346       -1.28997
C          1.06853       -3.69836       -1.48332
C          2.03261       -4.49152       -0.88951
O          2.75994       -4.16681        0.26705
O          1.14198       -0.83939        0.84615
H          3.09675       -3.38305        2.90302
H          4.36803       -2.62443        1.90102
H          2.99532       -1.63522        2.50405
H          0.55630       -4.04799       -2.38750
H          2.33284       -5.47952       -1.27321
O 2.3102199970078723 0.004263023255813987 7.7922874072796455
H 3.210219997007872 0.004263023255813987 7.7922874072796455
H 2.0172086579964312 0.8552297412951991 7.7922874072796455
O -2.877624767906786 -2.6345596149404136 7.104385951649571
H -1.9776247679067862 -2.6345596149404136 7.104385951649571
H -3.170636106918227 -1.7835928969010284 7.104385951649571
O 0.4334672795300594 4.910031810908172 6.416484496019498
H 1.3334672795300595 4.910031810908172 6.416484496019498
H 0.14045594051861843 5.760998528947557 6.416484496019498
O 3.4606856248376934 -4.505769010443985 5.728583040389425
H 4.360685624837694 -4.505769010443985 5.728583040389425
H 3.1676742858262523 -3.6548022924046 5.728583040389425
O -6.17763743640121 1.0975180898566255 5.040681584759351
H -5.27763743640121 1.0975180898566255 5.040681584759351
H -6.470648775412651 1.9484848078960106 5.040681584759351
O 5.697264623213798 3.626533634005623 4.352780129129279
H 6.597264623213798 3.626533634005623 4.352780129129279
H 5.4042532842023565 4.477500352045008 4.352780129129279
O -1.8464968185247193 -6.875506502089946 3.6648786734992043
H -0.9464968185247192 -6.875506502089946 3.6648786734992043
H -2.1395081575361603 -6.024539784050561 3.6648786734992043
O -3.4155751878760325 6.586383607229369 2.9769772178691305
H -2.5155751878760326 6.586383607229369 2.9769772178691305
H -3.7085865268874736 7.437350325268754 2.9769772178691305
O 7.176473936951895 -2.615504311640336 2.2890757622390594
H 8.076473936951896 -2.615504311640336 2.2890757622390594
H 6.883462597940454 -1.7645375936009506 2.2890757622390594
O -7.198012965965548 -2.9681808818876254 1.601174306608985
H -6.2980129659655475 -2.9681808818876254 1.601174306608985
H -7.491024304976989 -2.1172141638482405 1.601174306608985
O 3.3432167948379354 7.1422653638435065 0.9132728509789123
H 4.243216794837935 7.1422653638435065 0.9132728509789123
H 3.0502054558264944 7.9932320818828915 0.9132728509789123
O 2.3705231410724514 -7.544002180346818 0.22537139534883766
H 3.2705231410724513 -7.544002180346818 0.22537139534883766
H 2.0775118020610104 -6.693035462307433 0.22537139534883766
O -6.815715713103685 3.9558066457875216 -0.4625300602812352
H -5.915715713103685 3.9558066457875216 -0.4625300602812352
H -7.1087270521151265 4.806773363826907 -0.4625300602812352
O 7.611538491435625 1.6769946141640797 -1.1504315159113097
H 8.511538491435624 1.6769946141640797 -1.1504315159113097
H 7.318527152424184 2.527961332203465 -1.1504315159113097
O -4.38930374461781 -6.243235187470554 -1.838332971541384
H -3.48930374461781 -6.243235187470554 -1.838332971541384
H -4.682315083629251 -5.392268469431169 -1.838332971541384
O -0.9502231899710305 7.359667843605564 -2.526234427171455
H -0.05022318997103048 7.359667843605564 -2.526234427171455
H -1.2432345289824716 8.21063456164495 -2.526234427171455
O 5.450299958298241 -4.586787516584906 -3.214135882801529
H 6.350299958298241 -4.586787516584906 -3.214135882801529
H 5.1572886192868 -3.7358207985455207 -3.214135882801529
O -6.7401091299862195 -0.2745827475260172 -3.9020373384316045
H -5.840109129986219 -0.2745827475260172 -3.9020373384316045
H -7.0331204689976605 0.576383970513368 -3.9020373384316045
O 4.451904553926717 4.431588546328725 -4.589938794061676
H 5.351904553926717 4.431588546328725 -4.589938794061676
H 4.158893214915276 5.28255526436811 -4.589938794061676
O -0.25957755489219575 -5.672669669863277 -5.2778402496917485
H 0.6404224451078042 -5.672669669863277 -5.2778402496917485
H -0.5525888939036367 -4.821702951823892 -5.2778402496917485
O -3.1523238851874877 3.78530974891888 -5.965741705321824
H -2.252323885187488 3.78530974891888 -5.965741705321824
H -3.445335224198929 4.6362764669582655 -5.965741705321824
O 3.874570088578702 -0.516660893825622 -6.653643160951899
H 4.774570088578702 -0.516660893825622 -6.653643160951899
H 3.581558749567261 0.3343058242137632 -6.653643160951899
O -1.8910311940299396 -1.3135047120805499 -7.34154461658197
H -0.9910311940299396 -1.3135047120805499 -7.34154461658197
H -2.1840425330413806 -0.4625379940411647 -7.34154461658197


