%chk=Fe_18H2O_wB97X_3_6.chk
#p wB97X 6-31+G(2df,p) scf=(maxcycles=500,xqc,maxconventional=50) scrf=(cpcm,solvent=water)

Fe_18H2O_3_6

3 6
Fe          -0.13497372542556       -0.14014085594287        0.10059743200119
O           -2.02095902423469       -0.94072169643810        0.88432147614259
O            1.07194379336682        1.30303164638588        1.16412213457764
O            1.66071688859090       -0.11301192919371       -1.20217737879318
O           -0.97158536775104       -0.04700509203252       -2.07683862932757
O           -1.45709405487968        1.70371655447146        0.09313653266731
O            0.82926058960872       -1.43382960380670        1.67272008915076
H           -2.42414785349299        1.59715116908122        0.00371116891578
H           -1.20004710896377        2.37021094447732       -0.56027298343589
H            1.01155272794294       -1.03596747131523        2.54509181937012
H            1.68762188384020       -1.82084027661346        1.40204545720008
H           -2.49793653845564       -0.46038016742115        1.58323550240222
H           -2.56444853805257       -1.68469243301291        0.58907010184907
H            2.41906456093190        0.49659967456664       -1.08734938807025
H            2.02399185370690       -0.93003553559402       -1.58062431333880
H            1.22547330659047        2.18922096645352        0.78501161239351
H            1.95964997814561        0.98713621584555        1.45816281571461
H           -1.95030287086133       -0.13847961484364       -2.10961015485005
H           -0.61679765864210       -0.67045730253141       -2.71421159403592
O           -2.91450196499731        0.96110435908943        2.56333741718560
O            3.20011235317653       -2.30028649649814        0.73701039196886
O           -3.62539276852952       -0.37553313695830       -1.95305651133390
O           -0.23729139375437       -2.45530926795278       -0.60827881780090
O           -4.16177901399021        1.33832894112721        0.12565773795625
O           -2.88991944977562       -2.80823564038042       -0.94170024714784
O            1.89134247246772       -0.24267530285289        3.85836785602250
O            3.50864400123603        0.32764856501319        1.59034568888222
O            1.61128331680850        3.42692174514197       -0.41276153533294
O           -0.28867479037760        2.66735275462875       -2.18937483255844
O            3.64869431984893        1.67717716555329       -0.82226745383287
O            2.20384666548881       -2.70618213392257       -1.77589335566728
H           -3.22850294677973       -2.01139060580653       -1.39579319595765
H           -3.44067327336426       -3.54915240311814       -1.19122473833920
H           -2.91909251642646        0.92263462077350        3.52042169483652
H           -2.18002570207127        1.52982845470648        2.29393678403011
H           -4.79455629385989        2.05687876262995        0.09443524796528
H           -4.03472950242026        1.10460235080748        1.06084892294155
H           -0.43642961950999        3.09111562977286       -3.03512615181528
H           -0.35305889592166        1.70374790307128       -2.32215562785833
H           -4.23801584912134       -0.15126046810636       -2.65467571394151
H           -3.86610609002286        0.16269934167600       -1.17357711926298
H           -1.15467600098554       -2.68249750030300       -0.86264900198048
H           -0.08411176947927       -2.91776695345769        0.22170914408717
H            2.35110779750809       -3.32571797285210       -2.48993510683387
H            1.27381071308374       -2.78998140957671       -1.47618596444302
H            4.27623241628234        1.96301359173103       -1.48574915820743
H            3.02066864267247        2.41317297600154       -0.66817246746875
H            1.55033506366649        4.37339796523448       -0.28429999782507
H            0.96591688973910        3.17395388650726       -1.10806417125445
H            3.84770040317414        0.84208159180548        0.84147686839852
H            3.48349322886885       -0.59475819200043        1.27635949077906
H            2.24824909283280       -0.56416086048969        4.68552129427848
H            2.63109474560199        0.09269464513881        3.32883103860464
H            3.70544619536737       -3.05011487076057        1.05026588798959
H            2.98364668163970       -2.45852722794318       -0.20339599759814



