%chk=Fe_18H2O_wB97X-D_0_5.chk
#p wB97XD 6-31+G(2df,p) scf=(maxcycles=500,xqc,maxconventional=50) scrf=(cpcm,solvent=water)

Fe_18H2O_0_5

0 5
Fe          -0.53365424077881        0.36234615661917        0.37386261120822
O           -2.83180840463163       -0.68760951247109        0.85756505256272
O            1.34404529886697        1.52537275647878        1.43103228976744
O            1.40348463985554        0.23226787337742       -1.13770331227405
O           -1.90169496272626        0.82163048141219       -1.66991109849971
O           -0.67923936985874        2.83642218412607       -0.02203762413212
O            0.39615449368793       -1.29438497000009        1.93098724462481
H           -1.63073705636499        2.94803324012562        0.07638692015093
H           -0.48799018813646        2.83115165643035       -0.97411889629826
H            0.76862940796896       -0.90146515054704        2.74088049515776
H            1.16116611222872       -1.70152523111556        1.49003189230175
H           -2.88890892746668       -1.14880829881286        1.69528018338126
H           -3.08031201310002       -1.33844008166153        0.16828283527579
H            2.28428005373841        0.52481561922834       -0.83522427617140
H            1.52547737830365       -0.63926848845957       -1.54282637274255
H            1.63554022706487        2.22033774953461        0.82129816524027
H            2.12505131417892        0.97464042654309        1.62002819065197
H           -2.67870474066945        1.24626342803814       -1.29586100011940
H           -2.23504263025547        0.06471447462580       -2.17917698223062
O           -1.10118110469778        1.32478201336389        2.66140400115277
O            2.59064093740906       -2.41431461982574        0.63296646000048
O           -3.09923893172083       -1.21892620023655       -3.10298874225751
O           -0.70807481555185       -2.03968175556903       -0.51361725555719
O           -3.20413148211256        2.01398302475563        0.82774669793666
O           -3.21041088813377       -2.55561636772918       -1.00937752704244
O            1.77881118309334       -0.24518087693940        4.05148161649539
O            3.54247132150115       -0.08545406882884        1.81410491125856
O            2.09579361734620        3.46993821036578       -0.49748712356047
O            0.37280830209819        2.29620203408577       -2.51954278805301
O            3.86540882481738        1.34906620842224       -0.53548695805677
O            1.49411652737808       -2.40307013666947       -1.91899520269460
H           -3.15847260186321       -1.81215477108075       -2.22224016442466
H           -3.59756175567862       -3.40348291959284       -1.20994364320870
H           -0.90532334793739        0.68877788837734        3.35263627588157
H           -0.33120049261289        1.90684728048628        2.62059190012582
H           -3.36529095010891        1.05990159256418        0.77205569764989
H           -2.75417617921560        2.11091012226889        1.67695831997478
H           -0.46827386470733        1.98109773254831       -2.86333125619766
H            0.78136758532077        1.48990201626874       -2.12994736050428
H           -3.95593318678497       -1.30453606719814       -3.51906932321443
H           -6.64382856572846       -5.08548979651730       -4.22404272123696
H           -1.63272811752919       -2.27399159778664       -0.79421533982916
H           -0.58566409325520       -2.45492758531446        0.34596896255900
H            1.36446356085769       -2.76688288127544       -2.79521828510173
H            0.60340156087654       -2.35258588240400       -1.49083885760359
H            4.48035024442049        1.40957074196024       -1.26845277499425
H            3.42385219505308        2.21344220625893       -0.46327715383863
H            1.55576066289995        4.13562119488284       -0.06299318355181
H            1.59295829865687        3.19817421674533       -1.28069581204123
H            3.95067662520230        0.41825334462299        1.09289320199234
H            3.26620502060082       -0.92650163465886        1.40735436736398
H            2.11658574672498       -0.77138485074644        4.77820043429875
H            2.53004518768214       -0.05374221132056        3.46683919106184
H            2.89281228131758       -3.30467721418408        0.82020561381953
H            2.33229430167948       -2.39405270356467       -0.30409249703418



