%chk=Fe_18H2O_wB97_2_5.chk
#p wB97 6-31+G(2df,p) scf=(maxcycles=500,xqc,maxconventional=50) scrf=(cpcm,solvent=water)

Fe_18H2O_2_5

2 5
Fe          -0.38307401298901       -0.06955731985513       -0.56500642616447
O           -2.23843538403137       -0.91883105850332        0.90298699267702
O            0.50481449075927        1.58052356549178        0.99885293722516
O            1.92878690579101        0.00581677222496       -1.41194303836649
O           -1.51652248876872       -0.37898110541800       -2.78375978309365
O           -2.18660610585153        1.59069078930336       -0.59522598242017
O            0.44540775645358       -1.43587117661299        1.34398879444532
H           -2.69653006213111        1.85043700236474        0.19055873800613
H           -2.04852640231477        2.38624645282170       -1.10769184100061
H            0.44623388856057       -0.99829985756166        2.20886451963144
H            1.36271654019851       -1.72229982906367        1.21055867348874
H           -2.16069305644649       -0.23203278923040        1.59506921301877
H           -2.07069782885011       -1.75200039682898        1.34636509938929
H            2.58872746399764        0.57452970715505       -0.98490169119084
H            2.34221620074915       -0.85090782869500       -1.57911220751709
H            0.73463993293394        2.43164448192997        0.60055164189428
H            1.33434674792416        1.22624734130118        1.37932348900698
H           -2.42718066608160       -0.37691385176191       -2.44409090411440
H           -1.40803892116547       -1.22695905751291       -3.21953883391429
O           -1.46435174134420        0.94739871849836        2.70644891485729
O            3.10262532813196       -2.08024112728143        0.94256228163570
O           -3.79908772955904       -0.88793641841180       -1.33482523698252
O           -0.21452374532051       -2.53194575609601       -1.10447752478873
O           -3.48835252638808        2.44418494426703        1.68182054173459
O           -2.55314428476282       -3.13407812431561       -2.35320965991829
O            0.90948286356532       -0.17178988909900        3.80136568514384
O            2.85511278387110        0.55305747585469        1.88867660998447
O            1.34539364581856        3.58001842405426       -0.70593783946850
O            0.15668372008639        1.78878775249229       -2.37036748608053
O            3.55453212191517        1.99363716423600       -0.35130573499589
O            2.43901277418074       -2.69344973501569       -1.63594393381094
H           -3.12561765848208       -2.42454115814025       -2.00711466670325
H           -3.09377273327992       -3.92021901748106       -2.43381389219196
H           -0.94775598576774        0.57113599018945        3.42770071433579
H           -0.78873390256690        1.29928832221324        2.08440662450274
H           -3.46803805184195        3.35242737227850        1.98857412662826
H           -2.88359348947777        1.94020432310513        2.25862009605129
H            0.95014685183026        1.27242597182559       -2.56617243217061
H           -0.51336942765938        1.50068712071242       -2.99731494388929
H           -4.56924185737603       -0.32298809804147       -1.26645431267304
H           -3.32449630049127       -0.81833176654787       -0.48189021228304
H           -1.00129889925974       -2.84145354898324       -1.59026150614600
H           -0.25739775879673       -2.92474412628614       -0.22805704817775
H            2.66432940986342       -3.29435034957542       -2.34666548246791
H            1.46083672560419       -2.70648594732077       -1.53370267248392
H            4.32612899437245        2.36788488047375       -0.77735281177963
H            2.82544719159997        2.64035464921905       -0.44906783612068
H            1.22662523226376        4.50366758064608       -0.92949507606631
H            0.87282864999788        3.04692424533638       -1.37675765306200
H            3.32572516783045        1.12737810911538        1.26421724609870
H            2.98971275951495       -0.34995713065432        1.55226677770518
H            1.25313696068776       -0.60050034267300        4.58592774908678
H            1.66194309412335        0.25423360360452        3.35796430584373
H            3.62371630839737       -2.76863748630502        1.35739410397256
H            3.00284050983189       -2.31921846654648        0.00072279391681



