%chk=V_2_B3LYP
#p B3LYP empiricaldispersion=gd3 6-31+G(2df,p) scf=(maxcycles=500,xqc,maxconventional=50) scrf=(cpcm,solvent=water)

title

2  4
V         -0.00000        0.00000        0.00000
O         -1.42410        0.00688       -1.61821
H         -2.22260        0.54959       -1.67838
O         -1.12718       -1.55194        0.98362
H         -0.91421       -1.96862        1.83025
O          1.16298       -1.49563       -1.02818
H          1.87940       -1.33371       -1.65770
O          1.42412       -0.00690        1.61819
H          1.38400        0.53041        2.42158
O          1.12716        1.55196       -0.98362
H          0.91425        1.96855       -1.83029
O         -1.16298        1.49564        1.02819
H         -1.87935        1.33372        1.65775
H         -1.06618        2.45475        0.94767
H         -1.94121       -1.96297        0.66087
H         -1.38398       -0.53050       -2.42155
H          1.94111        1.96309       -0.66080
H          1.06614       -2.45474       -0.94771
H          2.22264       -0.54958        1.67830
O 1.7984373475580595 3.5059674461847047e-17 4.124998947368421
H 2.6984373475580594 3.5059674461847047e-17 4.124998947368421
H 1.5054260085466185 0.8509667180393852 4.124998947368421
O -2.1947559840873954 -2.01057674811056 3.374998947368421
H -1.2947559840873955 -2.01057674811056 3.374998947368421
H -2.4877673230988364 -1.159610030071175 3.374998947368421
O 0.31954573603907993 3.6410528503364104 2.6249989473684208
H 1.21954573603908 3.6410528503364104 2.6249989473684208
H 0.026534397027638934 4.492019568375795 2.6249989473684208
O 2.4889821664815126 -3.2464357986749017 1.874998947368421
H 3.3889821664815125 -3.2464357986749017 1.874998947368421
H 2.1959708274700716 -2.3954690806355163 1.874998947368421
O -4.29050076927329 0.7589292671576418 1.124998947368421
H -3.3905007692732902 0.7589292671576418 1.124998947368421
H -4.583512108284731 1.609895985197027 1.124998947368421
O 3.7836927083429432 2.406875250540958 0.3749989473684213
H 4.683692708342943 2.406875250540958 0.3749989473684213
H 3.490681369331502 3.257841968580343 0.3749989473684213
O -1.164155461700572 -4.3306022485984155 -0.37500105263157874
H -0.264155461700572 -4.3306022485984155 -0.37500105263157874
H -1.457166800712013 -3.4796355305590305 -0.37500105263157874
O -2.008220358407198 3.86670711047041 -1.1250010526315786
H -1.108220358407198 3.86670711047041 -1.1250010526315786
H -2.301231697418639 4.717673828509795 -1.1250010526315786
O 3.8425451280956153 -1.4032911256516658 -1.8750010526315797
H 4.742545128095616 -1.4032911256516658 -1.8750010526315797
H 3.5495337890841743 -0.5523244076122806 -1.8750010526315797
O -3.3785267383891964 -1.3946069416308846 -2.625001052631578
H -2.4785267383891965 -1.3946069416308846 -2.625001052631578
H -3.6715380774006374 -0.5436402235914994 -2.625001052631578
O 1.2615655105392432 2.695891093976401 -3.375001052631579
H 2.1615655105392433 2.695891093976401 -3.375001052631579
H 0.9685541715278021 3.5468578120157863 -3.375001052631579
O 0.5382436481371013 -1.7160038874699688 -4.125001052631579
H 1.4382436481371013 -1.7160038874699688 -4.125001052631579
H 0.24523230912566035 -0.8650371694305836 -4.125001052631579
O 2.3231700117492737 0.1457348560637981 6.138887836257308
H 3.2231700117492736 0.1457348560637981 6.138887836257308
H 2.0301586727378327 0.9967015741031833 6.138887836257308
O -2.4625660245415077 -2.281308654161119 5.416665614035087
H -1.5625660245415078 -2.281308654161119 5.416665614035087
H -2.755577363552949 -1.430341936121734 5.416665614035087
O 0.5798561854938138 4.624317709827226 4.6944433918128645
H 1.479856185493814 4.624317709827226 4.6944433918128645
H 0.2868448464823728 5.475284427866611 4.6944433918128645
O 3.3172509738716704 -3.9373738342920004 3.9722211695906426
H 4.21725097387167 -3.9373738342920004 3.9722211695906426
H 3.0242396348602294 -3.086407116252615 3.9722211695906426
O -5.356306941407601 1.1262338164736474 3.249998947368421
H -4.4563069414076 1.1262338164736474 3.249998947368421
H -5.649318280419042 1.9772005345130326 3.249998947368421
O 5.239510154100755 3.3598504595714505 2.527776725146198
H 6.139510154100756 3.3598504595714505 2.527776725146198
H 4.946498815089314 4.210817177610836 2.527776725146198
O -1.4342119919234138 -5.884378223308392 1.805554502923976
H -0.5342119919234137 -5.884378223308392 1.805554502923976
H -1.7272233309348548 -5.033411505269007 1.805554502923976
O -2.7671850905094293 5.833468542765283 1.0833322807017538
H -1.8671850905094294 5.833468542765283 1.0833322807017538
H -3.0601964295208703 6.684435260804668 1.0833322807017538
O 6.282966808137085 -2.080572611519381 0.36111005847953176
H 7.182966808137086 -2.080572611519381 0.36111005847953176
H 5.989955469125644 -1.2296058934799958 0.36111005847953176
O -5.8121590969272 -2.330551500745056 -0.3611121637426904
H -4.9121590969271995 -2.330551500745056 -0.3611121637426904
H -6.105170435938641 -1.4795847827056707 -0.3611121637426904
O 2.903273483840501 5.950664093017693 -1.0833343859649125
H 3.803273483840501 5.950664093017693 -1.0833343859649125
H 2.61026214482906 6.801630811057078 -1.0833343859649125
O 2.05559462837835 -5.812251815579955 -1.8055566081871346
H 2.95559462837835 -5.812251815579955 -1.8055566081871346
H 1.762583289366909 -4.9612850975405705 -1.8055566081871346
O -4.994379953410617 3.1483391035414483 -2.527778830409357
H -4.094379953410616 3.1483391035414483 -2.527778830409357
H -5.287391292422058 3.9993058215808333 -2.527778830409357
O 5.684677070800545 1.3544259775965113 -3.2500010526315806
H 6.584677070800545 1.3544259775965113 -3.2500010526315806
H 5.391665731789104 2.2053926956358962 -3.2500010526315806
O -2.7722568336083975 -4.063230184163302 -3.9722232748538016
H -1.8722568336083976 -4.063230184163302 -3.9722232748538016
H -3.0652681726198385 -3.2122634661239173 -3.9722232748538016
O -0.3909501157158669 4.604253339870731 -4.694445497076025
H 0.5090498842841331 4.604253339870731 -4.694445497076025
H -0.6839614547273078 5.4552200579101155 -4.694445497076025
O 2.934199499956178 -2.1697697200636634 -5.416667719298246
H 3.8341994999561777 -2.1697697200636634 -5.416667719298246
H 2.6411881609447367 -1.3188030020242782 -5.416667719298246
O -1.9477299381531201 0.05746501630760885 -6.1388899415204685
H -1.04772993815312 0.05746501630760885 -6.1388899415204685
H -2.240741277164561 0.908431734346994 -6.1388899415204685



