%chk=V_3_HSE06
#p HSEH1PBE 6-31+G(2df,p) scf=(maxcycles=500,xqc,maxconventional=50) scrf=(cpcm,solvent=water)

title

3  3
V         -0.00009       -0.00012        0.00000
O         -1.54868        0.61164       -1.16488
H         -1.96134        1.49258       -1.16564
O         -1.30939       -1.03478        1.15955
H         -1.08349       -1.67968        1.85206
O          0.24703       -1.65122       -1.15827
H          0.92217       -1.77762       -1.84726
O          1.54850       -0.61167        1.16505
H          1.99217       -0.09062        1.85654
O          1.30963        1.03470       -1.15917
H          1.08397        1.67805       -1.85325
O         -0.24690        1.65153        1.15771
H         -0.92118        1.77824        1.84745
H          0.30868        2.45004        1.15532
H         -2.27865       -0.95194        1.15562
H         -1.99320        0.09051       -1.85573
H          2.27903        0.95316       -1.15342
H         -0.30911       -2.44937       -1.15752
H          1.96153       -1.49243        1.16585
O 1.7984726107159543 5.263157894732756e-05 4.125000526315789
H 2.6984726107159545 5.263157894732756e-05 4.125000526315789
H 1.5054612717045133 0.8510193496183325 4.125000526315789
O -2.1947207209295008 -2.0105241165316126 3.3750005263157896
H -1.2947207209295009 -2.0105241165316126 3.3750005263157896
H -2.487732059940942 -1.1595573984922274 3.3750005263157896
O 0.31958099919697464 3.641105481915358 2.625000526315789
H 1.2195809991969746 3.641105481915358 2.625000526315789
H 0.02656966018553364 4.492072199954743 2.625000526315789
O 2.489017429639407 -3.246383167095954 1.8750005263157894
H 3.389017429639407 -3.246383167095954 1.8750005263157894
H 2.196006090627966 -2.395416449056569 1.8750005263157894
O -4.290465506115395 0.7589818987365891 1.1250005263157894
H -3.390465506115395 0.7589818987365891 1.1250005263157894
H -4.583476845126836 1.6099486167759742 1.1250005263157894
O 3.783727971500838 2.4069278821199056 0.37500052631578973
H 4.683727971500838 2.4069278821199056 0.37500052631578973
H 3.490716632489397 3.2578946001592906 0.37500052631578973
O -1.1641201985426772 -4.330549617019468 -0.3749994736842103
H -0.2641201985426772 -4.330549617019468 -0.3749994736842103
H -1.4571315375541183 -3.479582898980083 -0.3749994736842103
O -2.008185095249303 3.8667597420493576 -1.1249994736842102
H -1.1081850952493033 3.8667597420493576 -1.1249994736842102
H -2.3011964342607443 4.717726460088743 -1.1249994736842102
O 3.84258039125351 -1.4032384940727185 -1.8749994736842113
H 4.74258039125351 -1.4032384940727185 -1.8749994736842113
H 3.549569052242069 -0.5522717760333333 -1.8749994736842113
O -3.3784914752313018 -1.3945543100519373 -2.6249994736842095
H -2.478491475231302 -1.3945543100519373 -2.6249994736842095
H -3.671502814242743 -0.5435875920125521 -2.6249994736842095
O 1.261600773697138 2.6959437255553484 -3.3749994736842104
H 2.161600773697138 2.6959437255553484 -3.3749994736842104
H 0.9685894346856969 3.546910443594734 -3.3749994736842104
O 0.538278911294996 -1.7159512558910215 -4.124999473684211
H 1.438278911294996 -1.7159512558910215 -4.124999473684211
H 0.24526757228355506 -0.8649845378516363 -4.124999473684211
O 2.3232052749071683 0.1457874876427455 6.138889415204678
H 3.2232052749071682 0.1457874876427455 6.138889415204678
H 2.0301939358957273 0.9967542056821307 6.138889415204678
O -2.462530761383613 -2.2812560225821716 5.416667192982456
H -1.5625307613836132 -2.2812560225821716 5.416667192982456
H -2.755542100395054 -1.4302893045427865 5.416667192982456
O 0.5798914486517086 4.624370341406173 4.694444970760234
H 1.4798914486517085 4.624370341406173 4.694444970760234
H 0.2868801096402676 5.475337059445558 4.694444970760234
O 3.317286237029565 -3.937321202713053 3.972222748538011
H 4.217286237029565 -3.937321202713053 3.972222748538011
H 3.024274898018124 -3.0863544846736675 3.972222748538011
O -5.356271678249706 1.1262864480525947 3.2500005263157896
H -4.456271678249705 1.1262864480525947 3.2500005263157896
H -5.649283017261147 1.9772531660919799 3.2500005263157896
O 5.23954541725865 3.359903091150398 2.5277783040935664
H 6.139545417258651 3.359903091150398 2.5277783040935664
H 4.946534078247209 4.210869809189783 2.5277783040935664
O -1.434176728765519 -5.884325591729445 1.8055560818713445
H -0.5341767287655189 -5.884325591729445 1.8055560818713445
H -1.72718806777696 -5.03335887369006 1.8055560818713445
O -2.7671498273515347 5.83352117434423 1.0833338596491224
H -1.8671498273515348 5.83352117434423 1.0833338596491224
H -3.0601611663629757 6.684487892383615 1.0833338596491224
O 6.28300207129498 -2.0805199799404335 0.36111163742690033
H 7.183002071294981 -2.0805199799404335 0.36111163742690033
H 5.989990732283539 -1.2295532619010483 0.36111163742690033
O -5.812123833769305 -2.3304988691661084 -0.3611105847953218
H -4.9121238337693045 -2.3304988691661084 -0.3611105847953218
H -6.105135172780746 -1.4795321511267232 -0.3611105847953218
O 2.9033087469983956 5.95071672459664 -1.0833328070175439
H 3.8033087469983955 5.95071672459664 -1.0833328070175439
H 2.6102974079869545 6.801683442636025 -1.0833328070175439
O 2.0556298915362445 -5.812199184001008 -1.805555029239766
H 2.9556298915362444 -5.812199184001008 -1.805555029239766
H 1.7626185525248035 -4.961232465961623 -1.805555029239766
O -4.9943446902527215 3.148391735120396 -2.5277772514619885
H -4.094344690252721 3.148391735120396 -2.5277772514619885
H -5.287356029264163 3.999358453159781 -2.5277772514619885
O 5.68471233395844 1.3544786091754586 -3.249999473684212
H 6.58471233395844 1.3544786091754586 -3.249999473684212
H 5.391700994946999 2.2054453272148438 -3.249999473684212
O -2.772221570450503 -4.063177552584356 -3.972221695906433
H -1.872221570450503 -4.063177552584356 -3.972221695906433
H -3.065232909461944 -3.2122108345449707 -3.972221695906433
O -0.39091485255797215 4.604305971449677 -4.6944439181286555
H 0.5090851474420279 4.604305971449677 -4.6944439181286555
H -0.6839261915694131 5.455272689489062 -4.6944439181286555
O 2.9342347631140724 -2.169717088484716 -5.416666140350877
H 3.8342347631140723 -2.169717088484716 -5.416666140350877
H 2.6412234241026313 -1.3187503704453307 -5.416666140350877
O -1.9476946749952253 0.057517647886556236 -6.138888362573099
H -1.0476946749952254 0.057517647886556236 -6.138888362573099
H -2.2407060140066664 0.9084843659259414 -6.138888362573099



