%chk=V_3_B3LYP
#p B3LYP empiricaldispersion=gd3 6-31+G(2df,p) scf=(maxcycles=500,xqc,maxconventional=50) scrf=(cpcm,solvent=water)

title

3  3
V          0.00000       -0.00001        0.00000
O          1.22569        1.14548       -1.17084
H          2.20204        1.14810       -1.16420
O         -0.38181        1.63775        1.16517
H         -1.06308        1.70851        1.86110
O         -1.60678        0.48472       -1.16995
H         -2.00690       -0.07177       -1.86544
O         -1.22577       -1.14559        1.17066
H         -0.94553       -1.76892        1.86807
O          0.38187       -1.63781       -1.16505
H          1.06320       -1.70862       -1.86093
O          1.60681       -0.48453        1.17001
H          2.00673        0.07204        1.86554
H          2.09773       -1.32850        1.16532
H          0.10398        2.48465        1.15708
H          0.94537        1.76855       -1.86845
H         -0.10395       -2.48470       -1.15696
H         -2.09754        1.32879       -1.16519
H         -2.20213       -1.14808        1.16404
O 1.798433137031744 3.157894736816047e-06 4.124998947368421
H 2.698433137031744 3.157894736816047e-06 4.124998947368421
H 1.5054217980203028 0.850969875934122 4.124998947368421
O -2.1947601946137114 -2.0105735902158233 3.374998947368421
H -1.2947601946137115 -2.0105735902158233 3.374998947368421
H -2.4877715336251525 -1.159606872176438 3.374998947368421
O 0.31954152551276416 3.641056008231147 2.6249989473684208
H 1.2195415255127642 3.641056008231147 2.6249989473684208
H 0.02653018650132316 4.492022726270532 2.6249989473684208
O 2.4889779559551966 -3.246432640780165 1.874998947368421
H 3.3889779559551965 -3.246432640780165 1.874998947368421
H 2.1959666169437555 -2.3954659227407795 1.874998947368421
O -4.290504979799605 0.7589324250523786 1.124998947368421
H -3.3905049797996054 0.7589324250523786 1.124998947368421
H -4.583516318811046 1.6098991430917637 1.124998947368421
O 3.783688497816627 2.406878408435695 0.3749989473684213
H 4.683688497816627 2.406878408435695 0.3749989473684213
H 3.490677158805186 3.25784512647508 0.3749989473684213
O -1.1641596722268877 -4.330599090703679 -0.37500105263157874
H -0.26415967222688763 -4.330599090703679 -0.37500105263157874
H -1.4571710112383287 -3.4796323726642937 -0.37500105263157874
O -2.008224568933514 3.866710268365147 -1.1250010526315786
H -1.108224568933514 3.866710268365147 -1.1250010526315786
H -2.301235907944955 4.717676986404532 -1.1250010526315786
O 3.8425409175692993 -1.403287967756929 -1.8750010526315797
H 4.7425409175693 -1.403287967756929 -1.8750010526315797
H 3.5495295785578582 -0.5523212497175438 -1.8750010526315797
O -3.3785309489155124 -1.3946037837361478 -2.625001052631578
H -2.4785309489155125 -1.3946037837361478 -2.625001052631578
H -3.6715422879269535 -0.5436370656967626 -2.625001052631578
O 1.2615613000129275 2.6958942518711377 -3.375001052631579
H 2.1615613000129277 2.6958942518711377 -3.375001052631579
H 0.9685499610014865 3.546860969910523 -3.375001052631579
O 0.5382394376107855 -1.716000729575232 -4.125001052631579
H 1.4382394376107857 -1.716000729575232 -4.125001052631579
H 0.24522809859934452 -0.8650340115358468 -4.125001052631579
O 2.3231658012229577 0.14573801395853492 6.138887836257308
H 3.2231658012229576 0.14573801395853492 6.138887836257308
H 2.0301544622115166 0.9967047319979201 6.138887836257308
O -2.462570235067824 -2.2813054962663823 5.416665614035087
H -1.5625702350678239 -2.2813054962663823 5.416665614035087
H -2.755581574079265 -1.4303387782269972 5.416665614035087
O 0.579851974967498 4.624320867721963 4.6944433918128645
H 1.4798519749674979 4.624320867721963 4.6944433918128645
H 0.28684063595605697 5.475287585761348 4.6944433918128645
O 3.3172467633453544 -3.9373706763972636 3.9722211695906426
H 4.217246763345354 -3.9373706763972636 3.9722211695906426
H 3.0242354243339133 -3.086403958357878 3.9722211695906426
O -5.356311151933916 1.1262369743683842 3.249998947368421
H -4.456311151933916 1.1262369743683842 3.249998947368421
H -5.649322490945357 1.9772036924077694 3.249998947368421
O 5.23950594357444 3.3598536174661873 2.527776725146198
H 6.139505943574441 3.3598536174661873 2.527776725146198
H 4.946494604562999 4.210820335505573 2.527776725146198
O -1.4342162024497296 -5.884375065413655 1.805554502923976
H -0.5342162024497296 -5.884375065413655 1.805554502923976
H -1.7272275414611706 -5.03340834737427 1.805554502923976
O -2.7671893010357453 5.83347170066002 1.0833322807017538
H -1.8671893010357454 5.83347170066002 1.0833322807017538
H -3.0602006400471864 6.684438418699405 1.0833322807017538
O 6.28296259761077 -2.080569453624644 0.36111005847953176
H 7.1829625976107705 -2.080569453624644 0.36111005847953176
H 5.989951258599329 -1.229602735585259 0.36111005847953176
O -5.812163307453515 -2.330548342850319 -0.3611121637426904
H -4.912163307453515 -2.330548342850319 -0.3611121637426904
H -6.105174646464956 -1.479581624810934 -0.3611121637426904
O 2.903269273314185 5.95066725091243 -1.0833343859649125
H 3.803269273314185 5.95066725091243 -1.0833343859649125
H 2.610257934302744 6.801633968951815 -1.0833343859649125
O 2.055590417852034 -5.812248657685219 -1.8055566081871346
H 2.955590417852034 -5.812248657685219 -1.8055566081871346
H 1.7625790788405928 -4.961281939645834 -1.8055566081871346
O -4.994384163936932 3.148342261436185 -2.527778830409357
H -4.094384163936931 3.148342261436185 -2.527778830409357
H -5.287395502948373 3.99930897947557 -2.527778830409357
O 5.68467286027423 1.354429135491248 -3.2500010526315806
H 6.58467286027423 1.354429135491248 -3.2500010526315806
H 5.3916615212627885 2.205395853530633 -3.2500010526315806
O -2.7722610441347135 -4.0632270262685655 -3.9722232748538016
H -1.8722610441347136 -4.0632270262685655 -3.9722232748538016
H -3.0652723831461546 -3.2122603082291805 -3.9722232748538016
O -0.39095432624218274 4.604256497765467 -4.694445497076025
H 0.5090456737578173 4.604256497765467 -4.694445497076025
H -0.6839656652536237 5.455223215804852 -4.694445497076025
O 2.9341952894298617 -2.1697665621689266 -5.416667719298246
H 3.8341952894298617 -2.1697665621689266 -5.416667719298246
H 2.6411839504184207 -1.3187998441295414 -5.416667719298246
O -1.947734148679436 0.057468174202345665 -6.1388899415204685
H -1.047734148679436 0.057468174202345665 -6.1388899415204685
H -2.240745487690877 0.9084348922417308 -6.1388899415204685



