19
Fe_2_X3LYP.log	Energy: -1080479.9143796
Fe        -0.00184        0.00130        0.00011
O          1.06908        1.47213       -1.14701
H          1.12733        1.51224       -2.11152
O          1.77981       -1.23152        0.06666
H          1.92441       -2.00431        0.62980
O          0.62633        1.00145        1.76745
H          0.17491        1.73898        2.20165
O         -1.06527       -1.47521        1.14667
H         -1.59210       -2.20683        0.79591
O         -1.78183        1.23160       -0.06701
H         -1.93653        1.98967       -0.64829
O         -0.62346       -1.00236       -1.76741
H         -0.16265       -1.73543       -2.19903
H         -1.43979       -0.84356       -2.26178
H          2.57938       -1.11650       -0.46495
H          1.57918        2.21592       -0.79795
H         -2.56883        1.13579        0.48795
H          1.44225        0.83271        2.25928
H         -1.11692       -1.52135        2.11134
