%chk=catecholate_optimized_Reduced_Structure.chk
#p B3LYP empiricaldispersion=gd3 scrf=(cpcm,solvent=water) scf=(maxcycles=500,xqc,maxconventional=1000) 6-31+G(2df,p)

Reduced_Structure

-4 1
C           -3.12719026940893       -1.21989142599764        0.09048955769791
C           -3.65950235179308       -0.10923500988010        0.69822532934549
C           -2.82223412568807        0.95051082017585        1.05717942696396
C           -1.43912769959748        0.95175245291760        0.81968475935843
C           -0.86357755161678       -0.25251587722096        0.19224343540817
C           -1.75282320665239       -1.28150276974947       -0.15427778627159
O            0.40923989585656       -0.36443033057936       -0.02369729880383
O           -0.70359235121115        1.97101397265655        1.13708271953892
H           -3.76284043720721       -2.05432362877734       -0.20350013441140
H           -4.72786210818682       -0.04161121032385        0.89996731159624
H           -3.25184584817259        1.83698295866151        1.53333117204132
H           -1.33134187785214       -2.16924398331685       -0.63578908552465
Fe           1.65965233201182        1.67681733591309        0.51182238007489
C            4.04943366598696        2.95202458268065        5.43235222536873
C            4.16527167351616        4.19572786191245        4.86136920905436
C            3.67941226635814        4.41060326096984        3.56890402388239
C            3.06232241134171        3.40917819725055        2.80342766479251
C            2.96187070542235        2.06733734394963        3.40634162254196
C            3.45442822127551        1.91325456365255        4.71136887315843
O            2.44565348048358        1.06868931433192        2.76056348942464
O            2.59700475398197        3.65921905511887        1.61967711034458
H            4.41825977370083        2.76386385833060        6.43992240536665
H            4.62975792129682        5.01821324406421        5.40403229143250
H            3.76900381485020        5.40410787919423        3.11944560769019
H            3.36973193322637        0.92237915188265        5.16749440326354
C            4.65335331290977        1.65680647196433       -4.23746573918050
C            3.55873781935133        2.32574700303102       -4.72792131311644
C            2.49107836230957        2.62120872484073       -3.87628599828513
C            2.47050613721453        2.26804845025632       -2.51808431139667
C            3.63434047179790        1.52624964666835       -1.99789836993009
C            4.68372254521334        1.27206346385722       -2.89433445512507
O            3.68897753619261        1.12167093641333       -0.76741189151507
O            1.47285603850955        2.58972713682729       -1.75632470826615
H            5.49721478877354        1.41806507194461       -4.88362117530318
H            3.51168858092665        2.62936559832950       -5.77306789879317
H            1.62179005313004        3.15717701083404       -4.26948897475373
H            5.55432933174701        0.73224886721041       -2.50985587767329


