%chk=catecholate_solvated_1_optimized_Reduced_Structure.chk
#p B3LYP empiricaldispersion=gd3 scrf=(cpcm,solvent=water) scf=(maxcycles=500,xqc,maxconventional=1000) 6-31+G(2df,p)

Reduced_Structure

-4 1
C           -3.71932222341876       -1.63501640054040       -0.19933004962806
C           -4.31469762713603       -0.56253776726855        0.41673993957461
C           -3.52750268856125        0.50739323437948        0.85581603400366
C           -2.13534551178477        0.56371803664111        0.66382658165716
C           -1.49062732367212       -0.61042305485804        0.04614013825531
C           -2.33065032053162       -1.65517737417290       -0.36928011269205
O           -0.20775447418187       -0.67740433059554       -0.09608687476175
O           -1.44948456436450        1.59756409684399        1.03718660997795
H           -4.31694630839643       -2.46573525369752       -0.56638607212615
H           -5.39121207284423       -0.53141642708523        0.56690374706296
H           -4.01145128008560        1.37227245808292        1.31431305704224
H           -1.86359143778830       -2.51198568632236       -0.85913590631090
Fe           0.92021552373732        1.39558312741340        0.51201000121149
C            3.27657355070697        2.69671308592676        5.45131975840544
C            3.35875458773478        3.94915277085331        4.89348564321344
C            2.84515833025350        4.16908455744040        3.61287067515157
C            2.23449845779525        3.16271538310348        2.85611311234455
C            2.15588978801921        1.81896361330074        3.44387814087993
C            2.68208627811781        1.65676932307625        4.73430875163389
O            1.62195565438303        0.82706609362036        2.80119518129804
O            1.73732830985532        3.40174743106275        1.67691405935198
H            3.67148462789010        2.50542890384630        6.44660641961326
H            3.81631113411835        4.77317981480559        5.43632413033769
H            2.91234065700388        5.16643196381777        3.17393181147188
H            2.62651215317046        0.66301814396140        5.18180496262761
C            4.11681179699941        1.38940905174996       -4.13437713444293
C            2.99374971416558        1.92624301469929       -4.71673802155951
C            1.87075378757672        2.18578596738123       -3.92713057864460
C            1.82935032095023        1.92803424496958       -2.55523525605053
C            3.01177421301483        1.32277862228301       -1.93399560428041
C            4.11849310331317        1.09706839422098       -2.77144225169138
O            3.04301795553597        1.00493563055579       -0.68002875062861
O            0.76804903724443        2.22847973954022       -1.84553323272645
H            5.00382271426911        1.18057168388745       -4.72858638710488
H            2.97025569738258        2.15640972073299       -5.77898711965058
H            0.97915023631043        2.61714324490101       -4.38563309252010
H            5.01026608732727        0.65970400058334       -2.32023488770428
O            4.02039333869423       -0.02950383258293       11.16330668197606
H            4.54911290682499       -0.50555077697185       10.51490615169827
H            3.23860656266655        0.29351699698964       10.70509951508873
O           -1.16309093832621       -0.49109480333758        8.73124384087280
H           -0.57694493904539       -0.77636201025099        8.02598049670619
H           -1.84377040123465        0.04423491679556        8.31441250465301
O            0.62723408758976        7.83191354138907        8.21833703703605
H            0.88036429263238        6.90670601606607        8.29010374853213
H            0.26902312695446        7.95431471769752        7.33437819511610
O            6.37673683660099       -2.58154970921154        6.61624970065443
H            6.46061512906697       -1.77242549534144        6.10364003625579
H            5.61933625354062       -3.05290496099598        6.26460350062759
O           -2.53655480087680        4.26542326639559        6.00423651563426
H           -1.65484384766016        3.94773737469282        5.77878039292429
H           -3.10706213406940        4.02765629457070        5.26416747719509
O            9.13321773349639        4.88373947238096        4.84475990863309
H            9.07608107771477        3.92513430618988        4.75003530839128
H            8.26815078634167        5.23870693159208        4.62272928235863
O            1.05652363831960       -4.53359095289572        4.74192154608888
H            1.28545599786530       -3.61677070202682        4.56326832939624
H            0.57496700599478       -4.84979979345888        3.96615838774558
O           -0.89173450315419        8.30829178013730        2.45236115999548
H           -1.03184965074596        7.38484275835966        2.68329637077781
H           -0.20530858588607        8.31781251521137        1.77787071099598
O            7.67437309645662        0.38338747335061        2.04588239397912
H            7.70012282897530       -0.10634300423276        1.21761363335432
H            6.77346591343168        0.70408000309344        2.14594699289616
O           -2.19120423609158       -0.24552171028585        3.56902418534185
H           -2.61962627751687       -0.01931624849947        2.71553137079950
H           -1.27259653539212        0.04453869341151        3.44653984073531
O            6.00717226549575        9.12535302980569        0.69510176079289
H            5.36066243885917        8.45200876212498        0.93123216586431
H            6.38430702110543        8.86728356132974       -0.15492146192251
O            3.87150151279906       -3.49939289423312        0.38527109781432
H            3.81946571457450       -2.63853060834274        0.80960446927222
H            3.13729180730428       -3.52104029742449       -0.23623911375906
O           -3.88223550282836        5.84534110333632       -1.50291811326079
H           -3.45611110030979        5.02909078609117       -1.22786720030148
H           -3.26902838175425        6.55630021615495       -1.29273419125979
O            8.48330210438755        4.56057900946778       -0.85142559717232
H            8.82098822157683        4.49027382680512        0.05048362177218
H            7.59888939422701        4.17901614805738       -0.84871184735474
O           -3.29251930293507       -4.52512489058244        1.34957655071367
H           -3.67099642639064       -4.25872232487109        2.19269074558974
H           -2.95318870900426       -3.72343738897705        0.94165451007884
O            1.16488351056521        4.58482426173128       -0.71858422559799
H            0.97061463020518        3.70891523928754       -1.16400289476542
H            1.37933069452220        4.26791246230599        0.18111507642267
O            7.99884311693440       -3.78777742455669       -3.01431851225960
H            7.68088299459148       -4.15258623512334       -2.18230058782960
H            7.34623203390706       -3.14165717214296       -3.29907949910337
O           -5.30929707447528        1.51109591820206       -4.94636697235054
H           -4.91112894614409        0.86736507666577       -4.35114312818980
H           -5.11985483779813        2.37829226595876       -4.57503023568787
O            5.04255895906908        6.87043548565678       -4.18516482560910
H            5.58539594405635        6.12921428814005       -4.47392344963348
H            4.39101518487759        6.51045829840504       -3.57587845809631
O            1.38458737988743       -3.73177018131732       -4.94017245969661
H            1.77387389370182       -2.91073961096304       -4.62627967976854
H            0.58760275948110       -3.87767536813206       -4.41083347398591
O           -0.63791420869317        7.27667796665897       -5.36774953859947
H           -1.25921217890545        6.54501544681571       -5.42332165792687
H           -0.06920494114778        7.09623567839925       -4.61329081759557
O            9.24937529172336        3.31522230247564       -6.94127468303818
H            9.31023673976836        3.13341032629276       -5.99835345799744
H            8.31380138426915        3.39593744295485       -7.15152710192269
O           -1.05649359704195       -0.13381079871120       -8.39861318295414
H           -0.19887959671908       -0.33928901047073       -8.01432318186858
H           -1.61111906702320        0.18836679370513       -7.68172043776676
O            2.81182453069892        6.30555309759743       -9.43453039689621
H            3.22888537041943        6.17907548948598       -8.57694231174251
H            1.86413362451859        6.35670349868920       -9.27654970540274


