%chk=catecholate_solvated_3_optimized_Oxidized_Structure.chk
#p B3LYP empiricaldispersion=gd3 scrf=(cpcm,solvent=water) scf=(maxcycles=500,xqc,maxconventional=1000) 6-31+G(2df,p)

Oxidized_Structure

-3 2
C           -3.60215646634469       -2.62554787241576       -1.35176994283112
C           -4.23194689069016       -1.50366465379499       -0.86714654903888
C           -3.49601846770025       -0.53486682976976       -0.18929967133302
C           -2.11742821075421       -0.64412815275640        0.02008132234570
C           -1.46040998212601       -1.85003068711973       -0.46491697050106
C           -2.23218407650053       -2.78888975655669       -1.14681767029419
O           -0.18112195913363       -2.05223304733775       -0.21925920773347
O           -1.44705700123094        0.28971027295335        0.64071206429360
H           -4.15901995260012       -3.38624206293292       -1.89060361464738
H           -5.29807122327236       -1.36201799359525       -1.01524831391168
H           -3.99240144149694        0.35794221577891        0.18643629364172
H           -1.73502830365275       -3.68299921555340       -1.52071238247602
Fe           0.97937366498854        0.17552262454159        0.05866716407319
C            3.50973824207159        2.23476048229632        4.61160096044992
C            3.38359460640648        3.41838050265609        3.92369164037737
C            2.76501280555478        3.43376149311583        2.67529456506523
C            2.25286086426417        2.27699836737403        2.07209194101105
C            2.41067923300124        1.01968684800610        2.79436425865403
C            3.02345359957806        1.05477280147820        4.04702908754208
O            1.98442329630198       -0.10683362328483        2.27174565518974
O            1.65174131670736        2.31345557716202        0.92113242426848
H            3.98243113418975        2.20749010479303        5.58817566314789
H            3.75928261905279        4.34496273294252        4.34576384764315
H            2.66132411517906        4.37318903289526        2.13527862270708
H            3.12386877444015        0.11548274873640        4.58838223399742
C            3.79521121108548        0.82465593894101       -4.79674528003285
C            2.52767685044006        0.98879859488390       -5.30300670885407
C            1.42894435359169        0.89978529895432       -4.45072546452825
C            1.54981887449797        0.64155430762302       -3.08049554608267
C            2.89370486285425        0.44465375742136       -2.54822397375010
C            3.96607052550879        0.56298029012436       -3.43793773098669
O            3.08664225426405        0.15263489291174       -1.28614933382554
O            0.49798405048628        0.58235228128179       -2.30814167425851
H            4.66246476971296        0.88580585417956       -5.44686048008277
H            2.37225916956718        1.18368045065120       -6.35994194111041
H            0.42561434358350        1.03752765860591       -4.84989339540275
H            4.97009021120701        0.42315973015172       -3.04104110499375
O            3.47823886077940       -0.36976250424580       10.21862605366594
H            3.00656933071373        0.13552586699889        9.55081193847606
H            2.81325845512532       -0.78983127564087       10.77418286782910
O           -1.62497869457180        1.48928450470572        7.57488190571831
H           -2.29750851496163        1.06222529219988        7.03526984236313
H           -0.87831983414425        1.67134046567942        6.99801664966713
O            0.66359083674959        7.50391910540252        5.85256646060030
H            0.36327628477740        6.66936343969459        6.22353459603374
H            0.57147534210442        7.43712945144636        4.89805397127960
O            7.67624682314353       -2.54203714345721        6.18617870322847
H            6.83850647425300       -2.08337804688121        6.08111267030760
H            7.82889972190757       -3.03645579994193        5.37517190604690
O           -2.93767024467344        4.41219720151995        3.66204993055769
H           -2.15598821463465        4.07940367463842        3.21340254493433
H           -3.62937754435918        3.75700254516985        3.53063254873837
O            8.93193343060806        4.38656039222566        4.88584858156463
H            8.22853389285067        3.73258244001491        4.86830970652484
H            8.62264179168396        5.14991193792226        4.38824169182067
O            4.03113829238462       -5.03924813540013        3.59801833586933
H            3.81845690735768       -4.35499490164992        2.95728963552433
H            3.24605791770284       -5.15832553495987        4.14118143197892
O           -0.42120977981198        8.17172510025650       -0.08816501306341
H           -0.34836858846705        7.29237536904867        0.29219536404703
H           -0.16222660031945        8.09756527415859       -1.01195318281691
O            7.43996391104390       -1.29126194113744        1.08515382343179
H            7.29842948450219       -1.59661196269846        0.18437211942562
H            6.58333927739303       -1.00527476231807        1.41240176069247
O           -0.48852855694603       -0.44791838547295        2.97127401646555
H           -0.89405346767624       -0.16496799592376        2.09886041302701
H            0.48263785882993       -0.31882053216790        2.74084792357313
O            6.36805896756736        8.39885658709446        1.37330413682957
H            5.70293304036870        7.70546648192656        1.36704293596355
H            6.87598819392349        8.30740187596336        0.56065878841959
O            2.41937591043711       -2.38515135929553       -1.04745771187155
H            2.68925145553691       -1.42311005616430       -1.08234771374991
H            1.48307291518582       -2.30614096244929       -0.78132853552982
O           -4.61307753796355        5.65611161414866       -1.29030174042895
H           -4.13477209739533        4.90529619713271       -0.92955025117767
H           -4.13540668630849        5.93794826813264       -2.07675449318069
O            7.81179586773711        3.75468839108545       -0.13057036830742
H            8.47989766603066        3.14453929209115        0.19855662823845
H            6.95504387579980        3.34545783683022        0.01539640613908
O           -0.37223316747540       -3.05281104782373        2.21577525009104
H           -0.42222749332600       -2.17590482222528        2.65548389017152
H           -0.21886067566754       -2.76317007225990        1.27410564678521
O           -0.06587236552457        2.91498704741264       -1.15589650355383
H            0.05841224948207        2.03480109140927       -1.59617388983084
H            0.46279031387251        2.77811863322250       -0.34859805319861
O            6.28806114017653       -5.79440999695335       -1.76663883336047
H            5.78701906684362       -5.83319197263944       -0.94626520419287
H            5.82239513771787       -5.18598795173630       -2.34705572920139
O           -4.69047031551193        2.18360087528462       -4.94836353908169
H           -5.40797479013438        1.62855939204181       -4.62677146152835
H           -3.90724266144293        1.94666810027024       -4.44496730978361
O            4.06816219205865        6.07606029250287       -2.79153142229296
H            4.65675084851062        5.51827622350575       -3.30919551962409
H            3.50822780829022        5.48620568023288       -2.28057624866076
O            2.03715192230179       -4.85521133541368       -5.41051031181824
H            2.46394150700836       -3.99500246963092       -5.36509187964794
H            1.52371481309988       -4.95027899779249       -4.60314165117857
O           -0.80116305265894        6.14440048001466       -5.46540486435232
H           -1.47310384848293        5.64020674980816       -5.93500291575584
H           -0.36481687983224        5.53713669684928       -4.86219048027740
O            9.32897530300714        3.36398692796703       -5.05212298250074
H            9.52147116586499        4.11447825193450       -4.48021109088406
H            8.62305358957711        2.86516766507169       -4.63311378104069
O           -2.23952443281243       -2.53621226960292       -7.01831257907733
H           -2.29434288913209       -2.34671634200741       -6.07787427252489
H           -1.38927991492948       -2.20627097707072       -7.32451774215655
O            3.74482095562545        6.20532198450057       -8.15857036758577
H            3.62694857708946        6.96787208465009       -7.58228771488461
H            3.32891913181203        5.45541498598132       -7.72495727879966
O            7.52203472460437        1.11856365792417       13.87820486321173
H            8.31363483559314        0.70697192487324       13.51687469503490
H            6.78870331197520        0.87317106372364       13.30564250091730
O           -1.53674930933736        1.22950575764068       10.42350774785712
H           -1.71665720439304        0.28844544986835       10.51425501683197
H           -1.55466859389386        1.41287518752971        9.47203582654151
O           -0.89335475050965       11.31943927280732        8.95733170941397
H           -0.01156621211802       11.14350548490418        8.61535527747477
H           -1.46011279117934       10.60377408770767        8.65378292014136
O            8.04179522559286       -3.40833959766270       11.24984902669280
H            8.49465569084979       -3.97809658311151       10.62042519024735
H            7.24093206015599       -3.09341933979441       10.81994183139969
O           -3.49524876544318        6.27856440243703        8.86939530226477
H           -2.96374893299250        5.78764201455725        9.50384794722776
H           -3.80288844203751        5.64632163870589        8.21276639126222
O            9.61380861489844        8.12669994015457        8.41795270390239
H            8.78839634588080        7.63650023251252        8.36420920917491
H            9.69555788173986        8.62914430183508        7.60101557783323
O           -0.18334089093569       -3.27487890013938        7.59599679220886
H            0.43591554939151       -2.79564701645289        7.03860014872978
H           -0.99746314185673       -3.36371991334974        7.09141434942846
O           -3.88576247723586        9.50229181426876        4.15504482716537
H           -3.77075073061220        8.95082657981306        4.93490592381367
H           -3.56130995951359        8.99703738691863        3.40405622801600
O           11.87885134142286       -0.02431390569721        4.17593682975745
H           10.95639662919660        0.07959384186665        3.92637061788500
H           12.05319252813469        0.61330650713196        4.87556278031497
O           -5.28151626889744       -2.23999793457392        5.07060088606680
H           -4.60840749668557       -2.05045867621340        4.41135681686760
H           -6.11422582174244       -2.34920433305942        4.59948045363537
O            5.40378005405766       10.19461663885309        6.13923217750382
H            4.92605317998080        9.42636018912540        5.81449874454814
H            5.08975683933266       10.95249491759605        5.63553212768520
O            8.22669119232295       -8.18349051500803        5.64014327224833
H            8.94171836685819       -7.54750505551713        5.74409536821320
H            7.46102416314702       -7.69854761246199        5.31844580163387
O           -8.60581047459210        7.93824626414963        1.63212893370116
H           -7.66726232097215        7.74084380986956        1.56060560980794
H           -8.69280573540358        8.89685365528911        1.62104293732292
O           13.14371824208961        3.80225958796468        1.44059925158302
H           12.59866439103096        4.30532140718907        2.05276833684237
H           13.97191588716006        3.61499633884930        1.89395161974506
O           -3.72753836641632       -6.78062769087136        2.90239279872128
H           -3.57033053771446       -6.16808355687796        2.17886855138282
H           -3.22336785869053       -6.45441950972977        3.65400365184790
O            0.74635574574388       12.27140684820966        3.49220463347726
H            0.12540747787227       12.50542460431953        4.18945204331424
H            0.30968935872888       11.61920471166245        2.93660914364809
O           10.69207821155963       -5.13222198065277        2.03567935119782
H           10.93762490987824       -4.20267832804313        1.99299252459796
H            9.88186421238679       -5.23216710920627        1.52717894591383
O           -8.82926581402856        2.82613186791350       -0.86428301328472
H           -8.01060517813369        2.32960187887836       -0.78605972581308
H           -8.76853332178103        3.56532755909730       -0.25042382985357
O           11.64176582851148        8.76805583326172        3.22644006185195
H           12.16590500511531        9.50585360324041        3.55394525516164
H           10.75634721652149        9.10506325239341        3.05962501764330
O            1.16401754933759       -7.71157698666757        0.17914076201901
H            0.76535743158481       -7.58535028482861        1.04578103470813
H            1.31854104222059       -6.83493642278107       -0.18248679981108
O           -5.29900697176286       10.97945073241065       -1.07969431464186
H           -5.82594459150308       10.54599238017330       -1.75808875173418
H           -4.56480755627919       10.39220365155536       -0.87687485193383
O           12.47196226821384       -0.71644380005377       -0.98705820056992
H           13.22214723012417       -0.48323979971969       -0.43026632250550
H           11.70088307973058       -0.27575179703733       -0.61933292757733
O           -8.51070247278066       -5.03532943195491        1.38846141423405
H           -8.24220654983857       -5.93905041159378        1.58421745174477
H           -7.79409416698279       -4.63102349563189        0.89187360609617
O            3.03954500715321       11.94767528924274       -1.32858386972183
H            3.22929956304012       11.24819558042355       -0.69661130658584
H            2.88473342539277       12.75048570441648       -0.82049186198802
O            4.87094877733562      -10.75301110812965       -2.65004643872637
H            5.70827346539720      -10.28812056755920       -2.74825703876884
H            4.18477711399849      -10.08553842163229       -2.55889468882825
O           -8.21200709351457        6.56725681702774       -4.94708869628067
H           -7.48881316880110        6.04389135765310       -5.30552543622053
H           -8.38296485778327        6.23907083492249       -4.05895191357550
O           10.97836855153882        7.83294130134522       -1.94337754832811
H           11.76403098678181        7.71123230473765       -2.48610419956278
H           11.00648882911402        7.16350897730980       -1.25296430706360
O           -3.22390994790811       -7.50594427123348       -5.40297752424985
H           -2.96730697376129       -8.36802251563729       -5.05889821812294
H           -2.78949787453185       -6.84234122424186       -4.86056831101591
O            1.50544088198768       10.99677040174055       -6.21252027853988
H            1.32573436875428       10.41432672479386       -5.46855179805121
H            1.79461122993729       11.83920938187460       -5.84746171875521
O           12.79774794290567       -0.88675008273888       -6.05590344679407
H           12.92528972224146       -1.70679240367797       -5.56867551885341
H           11.98012975626084       -0.49410910188172       -5.73628031843768
O           -3.07858987570222        1.63193714947467      -10.30370331934612
H           -3.19867337754952        0.84090370582344      -10.83933804204612
H           -3.39371238600066        1.42221934454904       -9.41957684257699
O            6.68078957395872        9.69350485411750       -5.05281268642927
H            7.22683075874343        9.22731925638367       -4.41269179644297
H            5.92460100170741       10.04606842628842       -4.57408694428470
O           -0.01030661489333       -6.83115262942144       -9.84209325423003
H            0.85029637181943       -6.87955971327162       -9.41525310698561
H           -0.60117223264851       -6.38165795372601       -9.23012349587020
O           -1.03038451966291        7.91237982220010      -10.18053277607499
H           -0.71769941347459        7.01235284037828      -10.31312429298425
H           -0.33041952668954        8.38790610764617       -9.72239511584548
O            9.04931872798710        6.70189855170240       -9.05654577594749
H            9.50143405447474        5.85349410295283       -9.02662334193224
H            8.48260474997904        6.74598545778014       -8.28021678120057
O           -4.44087487333638       -3.31151401812762       -8.69982840604344
H           -4.76047612869229       -4.11838653720355       -8.28497322384219
H           -3.69457715846181       -3.01093755155060       -8.16036892616589
O            3.92484648804269        6.37880446047164      -11.00654540585489
H            4.84049926116377        6.15911510403539      -11.20335872648983
H            3.83883731601282        6.32365145199094      -10.04177024186067
O            7.12867650529652        1.57104788927793       16.66776033715459
H            7.28328946540863        1.38557147996656       15.72701714619054
H            6.90283709432949        2.50473176541189       16.71769815078440
O           -2.65398170926623        2.31515102326732       15.61674807033266
H           -1.96092275504069        2.23818414553017       14.95373252592894
H           -3.48614178734570        2.40654876230007       15.14160671520680
O            1.80788120884827       10.94673335190037       13.35489646102409
H            1.48039288839775       10.16006519793208       12.90834596171531
H            1.11652228456332       11.61376352189787       13.29173104965114
O            8.70920498009936       -3.74338223130424       16.86351486068789
H            8.55144972238355       -3.79771024269483       15.91574722922791
H            8.38754333848782       -2.88312763533131       17.15207097812489
O           -6.59337197697512        3.13495894339281       11.71151617476370
H           -6.03237797726362        2.65233484240188       11.09657865941503
H           -6.92617671886706        3.90581434955210       11.24113954930718
O           13.91931902072656        8.10857939917683       11.49251384640339
H           13.85701475826566        7.45015695506244       10.79334801537092
H           13.07700167725504        8.57349699433447       11.51399584626818
O            0.13549642589500       -6.58044668724272       11.60519503616088
H            0.88756091642784       -6.27766248882190       11.08703847621676
H           -0.63801250485139       -6.11291254663202       11.27507913169794
O           -3.36572392159800       13.22166459337100       13.07362432356723
H           -3.53549721835058       12.33426785912086       12.74223405852644
H           -3.03870890140451       13.73941371490700       12.33111629265676
O           10.49530548227466        0.82626275323687        9.30086274926713
H           10.85210508867240       -0.05572850215354        9.44762451496342
H            9.59757775895221        0.71531034067155        8.97382618417887
O           -7.24230702310144        2.84119418532287        6.56970237345364
H           -6.96325999313511        1.98243100697202        6.23945605481226
H           -8.18517432050910        2.91574962020366        6.39217542301971
O            7.12639525399777       12.88798156141731       10.15112400387148
H            7.39803237217364       11.96627993731354       10.09705132832844
H            6.18572806363544       12.91441957930866        9.95057721620653
O            7.97534962975485      -12.29603152844814        8.85624547216172
H            8.74106656222423      -11.96573233399305        8.37552081284066
H            7.21549266565963      -11.79143973239332        8.54997147804959
O           -8.57673738910751        8.35713482957738        6.71906387178841
H           -8.04904161840833        7.61042324005604        6.41985601017290
H           -8.24838484674216        9.13660088111368        6.25934183398623
O           13.62260981653823        4.84771676735222        6.77647227926857
H           13.18387544671940        5.64026259222118        6.45113628385214
H           12.99455658626438        4.39697652401438        7.34947704994543
O           -7.70346852033467       -9.57333871892359        4.69294687143215
H           -7.01362757120632       -9.87228301857295        4.09252079973961
H           -7.36006143395427       -8.80047500044522        5.15199038267870
O            2.06058579017955       17.33845169937236        3.45448840681662
H            2.65694739830431       16.58360240377822        3.42740972342196
H            1.16495970596925       16.99080902879874        3.39618562384194
O           12.66166648355226       -4.75035785692269        6.99179787633478
H           12.15810514161865       -3.96580380116720        6.75351466226545
H           12.96540661368184       -5.14855662398310        6.17000639017274
O           -9.91119147841726        0.14056606855373        3.02362813738641
H           -9.95908039763305       -0.57298471804803        2.38051641623915
H          -10.71207751774642        0.66607487422896        2.92021307191364
O           10.26909158088634       13.03317846318503        5.89408039675639
H           10.38832034052519       13.35853024628574        6.79179693548044
H            9.32082125677724       12.96475470387636        5.74484674858259
O            1.83094145892764      -13.07287094562515        1.31058548742007
H            2.01478793688692      -13.61503237022296        0.53653637258024
H            2.17003519005476      -12.19252023658508        1.12199145400820
O           -7.87045213192034       13.29423941417454        3.31148804176009
H           -7.05432396087709       12.83219471027499        3.52671875221308
H           -7.64050084238602       13.99713458540923        2.69508318145972
O           17.05924902496589       -0.18800868041001        2.41591280606386
H           17.46852571635745        0.62339502781268        2.73271733915089
H           16.35740034147164       -0.41053306738424        3.03560237852174
O          -12.74897581232474       -7.03547726971163        4.20320207252194
H          -12.00300124208051       -7.62695076212333        4.34527683697899
H          -12.42858657016963       -6.30416444031404        3.66617964848639
O            6.39421802813564       13.95568932262302        2.14358294983198
H            6.70701603803446       13.09794696894916        1.83994855413740
H            6.72642796230918       14.60997232690551        1.52087699633625
O            8.92740703565432      -10.33904049018110        0.91322444404554
H            9.60353804680520       -9.88221221012804        1.42360546700068
H            8.07546475941592      -10.04724127324814        1.25188456544697
O          -12.84494825179774        4.94806384977097        2.42198383223950
H          -12.54536989105553        5.44243654023641        1.65250765746534
H          -12.34103858938168        5.27283333386806        3.17484740207629
O           16.19502097472651        7.71435735223105       -0.06037223560605
H           16.01305222031546        6.99353225966035       -0.67165924846176
H           15.40333288154235        7.83848791600531        0.47284196837615
O           -2.85837488389331      -10.77613137881390       -1.01760186371485
H           -2.04198958079280      -11.17929936426060       -0.70507314863311
H           -2.96628429199696       -9.95134001315509       -0.53484919587474
O           -3.02976694028836       15.25345349315931        1.78333602048357
H           -3.16556160508706       14.36319605281011        1.44414159381652
H           -2.71072160135009       15.78663935639664        1.04851406956138
O           14.07994958191907       -5.31502000005188       -2.55365879397617
H           14.68895677874692       -4.60069778801754       -2.34107964855791
H           13.38187593218060       -5.29420008539955       -1.89168251024433
O          -13.58846377914752        0.44433273468436       -0.90843181732369
H          -12.74104335518804        0.39432883389013       -1.36064047807508
H          -13.68525811151155        1.34853595233846       -0.59213086327246
O            9.34941262409706       13.13848912488694       -2.08470185914027
H            9.36557005193494       13.13873383852383       -3.04683763085836
H            9.80601655759205       12.34187566683626       -1.79669875147444
O            4.52098334588349      -13.49297835849160       -3.43408971888614
H            5.33408162369631      -13.88675196473383       -3.10180657421540
H            4.56673514939775      -12.55305409212849       -3.19952022449242
O           -9.15117147002521       12.07859720005128       -5.45295519702785
H           -9.16238157916076       11.11803361210864       -5.51025821621167
H           -8.23122918368016       12.34253499939911       -5.35095621761144
O           14.25434373234650        3.93082295434343       -3.83353813155667
H           13.94395264872553        3.31903892937090       -3.15858753497289
H           14.13213125577514        3.49641006648486       -4.68323276042373
O           -7.93222368626729      -10.16969394580608       -6.34638719511157
H           -7.21954662294316      -10.73758721083685       -6.65701415018394
H           -7.52592086039188       -9.35326628387616       -6.04034813444958
O           -1.66400286240550       14.01332608503904       -3.12731703454593
H           -2.41057356205288       13.77840025290898       -3.68705378762417
H           -1.34545838188305       13.19779200407595       -2.72838746938114
O            9.98372820767428       -7.60564634613088       -5.62729672843809
H           10.83294897478961       -7.47712402701059       -5.19211604632472
H            9.30615430922369       -7.29240639140222       -5.02059045859232
O           -9.02714493534897        2.07620116543603       -8.22037344097767
H           -8.16227787270910        2.49363509247274       -8.28168681583109
H           -9.59962691534400        2.68589636821527       -7.74427436797940
O           10.62720062355554       11.87416620384069       -7.38754678603185
H           10.57918686920270       10.91933414654608       -7.49729817822875
H            9.78572116075831       12.23207135294457       -7.68797163865848
O           -3.33800116482848      -10.87184564473506       -9.39106212663006
H           -2.37848011671209      -10.88341307216441       -9.32001628855267
H           -3.59974940540111       -9.95062537711367       -9.48580650401016
O           -4.10767417373621       10.22459274519089       -6.16431990327015
H           -4.66384084106413        9.51550135525692       -6.50084700645885
H           -3.21862090183024       10.06422516184229       -6.49483884565865
O           15.70537618149378        1.02927769182092       -9.93658781248268
H           15.81759988863663        0.19873106774915       -9.46333547296284
H           14.87977090565693        1.41559263307940       -9.62849796465536
O           -7.49881457879684       -0.73001660501327      -12.45607144594110
H           -7.37788442729248       -1.10203453697138      -11.57695228738728
H           -7.81741068855883        0.17037594879583      -12.33721411268827
O            5.64669793362830       11.27615029298219       -9.97515716272943
H            6.01789407770236       10.44075036575559       -9.67436910732256
H            4.79431320839921       11.37337233643670       -9.53984414944793
O            1.39746481233759       -6.71087397778018      -15.34341965762602
H            1.33858932903125       -6.82360328106616      -14.38985987353710
H            0.74718278181038       -6.04399033271459      -15.58606808092910
O           -5.92557144498504        6.40042152995502       -9.82633115309881
H           -5.22699173522922        5.73915282233303       -9.83880867694574
H           -5.63185769057265        7.12728090272499      -10.38482533916727
O            7.96531719911543        8.81536590816617      -14.17824325229279
H            8.33134412489565        8.64339498928459      -13.30494591018637
H            7.07014799231052        9.14374504232622      -14.04656819995255
O           -2.60237783667520       -3.40359062752863      -13.58968643127606
H           -2.28502737143513       -3.81004607608143      -12.77732808532530
H           -3.49171060628616       -3.08108791661586      -13.41250026420227
O            0.86442669982594        7.03000582069283      -15.21193448375174
H            1.17034585007484        6.22457822623460      -14.78361858763179
H            1.00604111272518        7.74841572727627      -14.58709811021969


