313
 energy: -42.750170268139 gnorm: 0.006429112637 xtb: 6.6.1 (8d0f1dd)
C            5.09950999992801       -0.53683000012298       -0.59730999998664
C            5.12390000003298        0.19497999993750        0.59739999997246
C            3.90834000005096        0.62865000001967        1.24110000005141
C            2.63982999998749        0.29339000000106        0.62231000000457
C            2.61439999999620       -0.46930000000419       -0.62240000006766
C            3.85773999993421       -0.88844999996314       -1.24109000003143
O            1.35089999999256       -0.70608000002895       -1.06741000002542
O            1.39491999998462        0.61398999999556        1.06719000004498
H            6.05285999999202       -0.85236000004466       -1.05641999999421
H            6.09615000003542        0.44622999998872        1.05656000006288
H            3.94929999999619        1.20450999997971        2.17420000002710
H            3.86026000000755       -1.46571000001939       -2.17421999995954
Fe           0.03589000001588       -0.00134999999167       -0.00007000000124
C           -2.09382000000088        4.64224999997863       -0.67673000011042
C           -2.69249999994851        4.38167999999153        0.57007999974293
C           -2.43721000004026        3.12905000003048        1.26367000009146
C           -1.56296000000752        2.16338999998504        0.67851999999546
C           -0.93007000005847        2.45357000000026       -0.63088000003237
C           -1.22178999996846        3.70256000003110       -1.29996999992593
O           -0.13091999999895        1.44707000000681       -1.05723000001104
O           -1.23193999999930        0.95261000003580        1.16805000000103
H           -2.30083999997408        5.60030999996728       -1.18574000000618
H           -3.35852999997851        5.13153999999793        1.02620999998632
H           -2.93418000002845        2.92486000000553        2.22193999995179
H           -0.77259999999567        3.93231000001339       -2.27589999992565
C           -2.98103000004324       -4.19122999989036       -0.56958000003739
C           -2.40053000017885       -4.49167000000661        0.67683999989733
C           -1.46693999997474       -3.61286000007764        1.29970999993758
C           -1.09232000003851       -2.38615000005175        0.63063000011098
C           -1.70496000004103       -2.05387000003336       -0.67835000001819
C           -2.64245999998430       -2.95849999993098       -1.26316999992438
O           -1.29353000000755       -0.86798999998796       -1.16786999998802
O           -0.22717999995258       -1.43567999999046        1.05673999998456
H           -3.69623999997086       -4.89452000000833       -1.02542999999204
H           -2.67123999994830       -5.43372000001490        1.18585000002223
H           -1.03372999998048       -3.87241999999103        2.27538999994956
H           -3.12509000000625       -2.72118999998993       -2.22113999990282
O            1.17118072400609        0.08523241495500        3.76829524413493
H            1.25296677068805        0.17133033418190        2.79889293692174
H            0.20983433810957        0.02313618879386        3.90357431294443
O           -1.73247289656308        0.08483337502756        3.82741906317204
H           -2.15702916125460       -0.78967950657011        3.73845392209326
H           -1.59300078529011        0.38479145887028        2.90791638817293
O            1.21146637800156        3.07482690799421        3.42155814254785
H            1.19268086409878        2.11528958363397        3.57805596583635
H            1.35816592678760        3.15566768911347        2.46160787357368
O            2.32759784628099       -2.61272790784583        3.75978816233329
H            2.18611257132888       -2.81693940034059        2.81430301514368
H            1.89177167564513       -1.74602112774030        3.85971549057076
O           -5.30716645245756        2.08896623145602        0.63704120171070
H           -4.76706609907302        1.27819590324534        0.66176958688987
H           -5.08201196038285        2.50161032856470       -0.21648612862526
O            4.31757444986932        3.66214716916398        0.97128796214275
H            4.55264385114486        2.72729145059247        0.87567913570534
H            3.36604356253340        3.65230075404520        0.78430018299758
O           -3.11398110476282       -2.45022211466108        3.60201365252034
H           -2.82332153461078       -2.77876055322261        2.73978682685172
H           -4.06471767161019       -2.65510937710544        3.65977699097688
O            1.53699037673146        3.36219489130926        0.42081949219877
H            0.68566247188754        3.54722283508228        0.00244800444076
H            1.49687897150759        2.39404720429126        0.54138108195220
O            4.97657847517097       -2.38475367786191        2.40413103534564
H            4.85346315307724       -1.61185083934240        1.83245584804872
H            4.13615493599641       -2.48629429778603        2.88288837322404
O           -3.71303325435351       -0.33951737939157        0.70049862726737
H           -3.45938324288293       -1.10859283169610        0.17369633828412
H           -2.86436061068507        0.11999895551325        0.82653207468258
O            1.67708962633117        6.33774213923503        0.77568388017315
H            1.59488762358844        5.37417048221419        0.64903976038174
H            2.53780008361931        6.45170072297328        1.21751544276306
O            2.07698049995366       -3.00447120618941        0.93364446763116
H            2.73214635284373       -2.41562924720308        0.53271206430092
H            1.26124311494827       -2.46971037726212        0.92196504019689
O           -4.59486998308806        3.25929617223833       -2.01540305082452
H           -3.82502677407040        3.59423548474167       -1.52860581466459
H           -4.20456338950415        2.96012039385604       -2.85565528146212
O            5.64554984455231        2.44892587408685       -1.73368223090925
H            6.36254265939986        2.78181781565474       -1.15931189448639
H            5.38408732535710        1.61150922424313       -1.31707988465996
O           -2.00531632106471       -5.43428748592795       -3.41863825925096
H           -1.03540356734384       -5.54007165530222       -3.38327272692907
H           -2.21531039859825       -4.87568428472121       -2.65464230460840
O           -1.70648566647484        8.58608740759831       -0.81199890078569
H           -2.10315395395888        7.70682249434521       -0.91835376288738
H           -1.31761082490901        8.57161505977713        0.08262536912902
O            1.75894866498305       -3.42267975239075       -1.79171001508853
H            1.99531600373671       -3.86316317627317       -0.95995197064627
H            1.54892480904402       -2.51270538884383       -1.51318517192415
O           -3.76975735241914       -0.39854003435131       -2.92034401056560
H           -3.00263249943375       -0.54828771278725       -2.33670127231439
H           -3.56141795627834        0.41843683787959       -3.41262393657258
O            2.76232701109302        2.96095828328516       -2.35959840915542
H            3.70303175709945        2.83261520382624       -2.12631886848854
H            2.30663846084908        3.06866897519618       -1.51147861945057
O           -0.44964533904932       -1.96370148330518       -3.70738336206690
H            0.52179076803701       -2.03240968178402       -3.70675784291003
H           -0.69126458556055       -1.64403161378935       -2.82197774618191
O           -0.89528979362508        1.06094847351201       -3.35024085555428
H           -1.01345355681762        0.47675230712109       -2.57506796332248
H           -0.23148604885232        1.68211181079435       -3.01443122037536
O            2.01332497482870        0.44513645373184       -3.57950400876212
H            2.29865820733606        1.33135233655370       -3.29669345770671
H            1.69914782671907        0.06976095048427       -2.73494018245848
O           -0.11676847823846       -0.00871660550040       -5.79268232435497
H           -0.07308212089058       -0.96178099783197       -5.60993619414153
H           -0.38051650161109        0.36099509436440       -4.93330131059502
O            3.64931451412745        0.55517903364495        5.22121890097586
H            3.91379069176196       -0.35790266527854        5.44502961748570
H            2.81817684727981        0.45100648929548        4.72295948225652
O           -3.84422680883481        1.06304863348970        5.60742935257870
H           -3.12188472101809        0.70700014890442        5.05712406214266
H           -3.74867321179535        2.03042094987766        5.52330158390942
O            1.83689294104490        4.63694562642337        5.80609198145116
H            1.67277764747007        4.08224010478920        5.01881986027110
H            0.94649025359114        4.81921199165217        6.15388090224733
O            4.27660416705402       -2.24407000842872        5.95749780306627
H            5.16325704100000       -2.55405390611846        5.69605495805468
H            3.67008811902990       -2.51053829665126        5.24023908320064
O           -5.75995611911601        3.46858135084554        3.09089943333030
H           -5.57034287509692        3.05850618209795        2.22577203033276
H           -6.13609537703840        2.72347857125562        3.59330227664575
O            6.70051141013680        3.80162015851552        2.63694554934373
H            6.42346026718390        3.44706350006592        3.49804058783251
H            5.86939926341659        3.80403366394269        2.12082985677917
O           -1.77638424504170       -4.22807952854443        5.49567125417664
H           -0.95586129971935       -4.55808333168896        5.08679869002621
H           -2.13178274512206       -3.60220187843217        4.83346248872824
O           -1.15280725935048        4.73077800253111        3.56872108767722
H           -0.36094665218992        4.16306452653696        3.52920230746772
H           -1.56952359947059        4.59751820716157        2.70647001576443
O            7.78850701954515       -2.78425418166986        2.42996826899088
H            8.10086812153121       -2.41466263045970        1.58213805193884
H            6.81851392230750       -2.68826229655517        2.37752067609085
O           -6.14478120054519       -0.91866555734215        2.09081541193480
H           -5.29408129087119       -0.74282365964418        1.64969081563016
H           -6.80897458579143       -0.61835975729450        1.44441817734535
O            4.28148933417449        6.40650942848970        2.05514458287625
H            4.36478275461539        5.48331041913720        1.74146742042672
H            4.27436422161280        6.34608568602860        3.02682623605557
O            0.79615486483964       -5.66637028816073        1.01418790433059
H           -0.11851327974829       -5.35179049363593        0.93193676889227
H            1.32108438345817       -4.84218117078124        0.99211620449705
O           -6.56224185462845        5.20824854429930       -1.15464295727379
H           -5.88801833327116        4.57386117810160       -1.45939565625906
H           -7.40485869179895        4.84477979229968       -1.46708633989973
O            7.89525031264661        3.23710177075739        0.01640722349809
H            8.30008520004573        4.11169877346810       -0.10262094531795
H            7.52881619149736        3.28817079953791        0.91639776424723
O           -5.96851365558047       -3.06730649278053        3.92975991871896
H           -6.73548113850141       -3.64300274559995        3.79218446175255
H           -6.10180148386104       -2.31995531781151        3.31704305998417
O           -0.35247921482518        8.27440104835629        1.66612920476855
H            0.34915294822164        7.64119118083192        1.41561929684553
H           -0.51702384870064        8.10026893833256        2.60922536720484
O            8.80578299184022       -1.76897613515333       -0.17367607462314
H            8.98056976366798       -0.84426099140296       -0.42704166855922
H            8.25645917810041       -2.11855745154377       -0.89163210857581
O           -8.05377251588910        0.05636327749584        0.12267340985055
H           -8.79832435727867       -0.32687338515158       -0.36686524215765
H           -7.43170776718918        0.34794372809047       -0.56880542273848
O            5.74008045338260        6.98056132204674       -2.30377334523083
H            5.98515285978447        7.15307581211470       -1.37597426056352
H            5.00952527231851        7.60338432213489       -2.48704552803919
O            0.87579756566276       -5.69100006270957       -3.29762184584045
H            1.11826507338015       -5.46243562663824       -4.21153428812807
H            1.19456624229945       -4.93263582541011       -2.77245702672887
O           -4.17963645568277       10.08438364715438       -1.32888442598116
H           -3.31238751358765        9.66404491225226       -1.17709652208787
H           -4.81552499554644        9.41901274059012       -1.00739965792743
O            7.64414992732995        1.03807424421917       -3.45757187030821
H            8.27688722182283        0.93029206265702       -2.72212855524481
H            6.89578519757402        1.50837514264704       -3.04503158505450
O           -4.77053778412456       -5.35467539417276       -4.42829913058394
H           -3.84519044137939       -5.40073139740061       -4.11105012260367
H           -4.92022646796958       -4.40090500321094       -4.56390883082646
O            3.56586179437032        8.94750573283645       -2.75770430618124
H            3.31359469259053        9.08009867538506       -3.68345146505908
H            2.74383040883571        8.65984386657013       -2.32138626164364
O            2.54254305710129       -2.32218353988828       -4.31383425537250
H            2.50276486245990       -1.38159256154949       -4.05938124041606
H            2.46654177347665       -2.79243994407039       -3.46391836747055
O           -3.23156185491589        2.28489106390108       -4.32954107415856
H           -2.39141197990818        1.92792664414140       -3.98097744797200
H           -2.96401202084643        2.68805901852878       -5.17338049564911
O            3.22712690098385        3.59585685545143       -5.13702764762377
H            4.06451546746791        4.04498516807525       -4.92547333813600
H            2.91146917714961        3.36558078395609       -4.24271372327709
O           -1.45233967105467       -3.66948274034265       -5.71813495508286
H           -1.16293630277011       -3.00851249379104       -5.05907968862848
H           -1.80750480549402       -4.37940520781551       -5.15547050709915
O            0.82346368421821        2.70521237859438       -6.60294875697949
H            0.65829331665952        1.79679381478503       -6.28462465704644
H            1.61946246032075        3.00567079191566       -6.13974336628707
O            2.74002668873111       -0.35836958435480       -6.39216238305302
H            2.93199681129887       -1.29417150975561       -6.21038356843075
H            2.42332138356087       -0.01276099487151       -5.53591636140717
O           -1.46789682187762        0.05160092644926       -8.31680136569332
H           -1.05285946833717        0.04678362174481       -7.43023968254238
H           -1.32167582135690        0.95818198991981       -8.64700920307164
O            3.80786145205458        1.33167776072451        8.05251061054943
H            3.79773417237270        0.44134435935832        8.44570295147064
H            3.72503818860645        1.14206669948463        7.09639363971331
O           -4.68726195292742       -0.71023474626035        7.82541143132106
H           -4.40512984588971       -0.09912169861753        7.11627495993326
H           -4.64345558623848       -1.59607408485806        7.42515257540610
O            4.27161505862725        4.10364524024481        7.32543304333828
H            3.41729896972310        4.30147910706007        6.89329018105780
H            4.14171008778316        3.21625967227739        7.70940317316881
O            3.73255921674359       -1.51440959072319        8.72010185236496
H            3.02403791681378       -2.10979039451151        9.00998659650612
H            3.93932136739712       -1.79124681579760        7.80603476223847
O           -3.61290632415481        3.94046528324473        5.03102488708510
H           -4.34575194009787        3.87842109943986        4.38948589241252
H           -2.84109565802529        4.20806685006281        4.50432239976119
O            5.57749897791189        2.74471371522381        5.03408470070140
H            4.98084211979433        1.97303979298892        5.02145453896769
H            5.25189862644730        3.26855556692830        5.78858978544744
O           -2.95282252313832       -5.40401579658860        7.94353180884396
H           -3.75282030139583       -4.84801968362519        7.94396814405823
H           -2.45778715340326       -5.09383971850312        7.16077449519587
O           -0.99112338258917        5.06849025368427        6.49668040067193
H           -1.11520707893040        4.92341075285968        5.53808187507542
H           -1.78893944600744        4.70210133730649        6.90313275939172
O            7.00535348924758       -3.03741171430725        5.26525123811312
H            7.79853053116357       -2.79724583525251        5.77014130123268
H            7.27473365685772       -2.98302975379896        4.33056659854388
O           -6.51089422769597        0.92524554151067        4.33331533347052
H           -6.35619562238275        0.26345696091292        3.62949649313735
H           -5.68668440897961        0.91817631147900        4.85514396153048
O            4.19461753001877        6.11529534478207        4.90995888456272
H            4.82118602853424        5.93669895251739        5.62626565623459
H            3.37362197529609        5.66909957252825        5.18894845489944
O            0.65132434922438       -5.06670438860361        4.06774808429997
H            1.23156486530073       -4.28091517662867        4.06886071543890
H            0.69128594053759       -5.39269977294997        3.14892059661308
O           -6.39006026661770        5.99240879097688        1.73934152839955
H           -6.46952682170653        5.66601904873045        0.82012902053047
H           -6.19167376808316        5.19513346134988        2.26320814336543
O            8.33191495802505        5.80581750291859        1.18700477349196
H            7.70477965209736        6.51648418302151        0.95613487302918
H            7.82934593595511        5.21867869126713        1.78553515905104
O           -4.53410883619157       -3.37758890815419        6.50055297299954
H           -3.63798444351059       -3.60239717398922        6.18468204087243
H           -5.06061930760652       -3.27747731379513        5.68399230405844
O           -0.79255512873795        7.50337029678117        4.42560759027330
H           -0.93284553030529        6.57892815704070        4.14070578489489
H           -0.74667820103918        7.46242274043406        5.39218218954963
O           10.57192896904666       -3.26535478316294        1.67752653491874
H            9.88635083086034       -3.43815318303764        2.34723893149234
H           10.09563798087355       -2.76111063145340        0.99033654375642
O           -9.04390358747606        1.23007037906884        2.70224543708025
H           -8.72731914240028        0.88217761779805        1.84438315435421
H           -8.26935696612810        1.17999392286749        3.29478170103342
O            6.28697496664545        7.76951142052746        0.51062030798920
H            5.96582447920800        8.62723211373008        0.18841308990488
H            5.57332580050922        7.39923661017118        1.06358801568413
O            0.37071123786683       -7.65232824238850       -1.18956885364898
H            0.52663137206878       -7.10252225983153       -0.40000650431605
H            0.58542309788830       -7.05335578573165       -1.93172396475170
O           -5.88000105215615        7.96584536628697       -0.31625780551243
H           -6.09132918902680        7.09791125140996       -0.70778433088092
H           -5.95724215579945        7.80368735356862        0.63942289344456
O            9.32661326133402        0.96306409273046       -1.01028456383730
H           10.24970203727270        1.25618285298881       -1.05176814326765
H            8.83952635710272        1.71327916088811       -0.62014052819649
O           -4.97417804742696       -8.27143591546372       -3.86877868920755
H           -4.98493415401456       -7.31709395749722       -4.08969989911617
H           -4.12509974647039       -8.39580895384185       -3.39493801755428
O            1.16584365754797        8.09543482546634       -1.51627969718662
H            1.36029571531139        7.49385800884755       -0.77232247608739
H            0.22767560596288        8.32355728003856       -1.39567384052869
O            1.03086259011060      -10.46142116312292       -1.57092625341672
H            0.34370891499884      -10.73373629225583       -2.19786492101819
H            0.85138671721449       -9.51689576553810       -1.40406511094284
O           -6.24485297564822        0.77662412140046       -1.98309101362421
H           -5.51580053860341        0.21054427007937       -2.29061809942010
H           -5.84028680682131        1.66377038578820       -2.00153710785100
O            5.61636996510130        4.56988223900907       -3.88790660119645
H            5.67676593816215        3.87216566935952       -3.20490772339011
H            5.68723749014275        5.40610464124713       -3.39126732819108
O           -2.29020804155507       -8.22303712826788       -2.50441001816586
H           -1.46393300539668       -8.21796339915547       -1.98697790290131
H           -2.30813840140128       -7.31726856840696       -2.87127610231020
O           -4.52076224387238       12.59286920361818       -2.68941182743262
H           -3.75573713098293       12.58266067940703       -3.28952360596242
H           -4.45689369210935       11.75392835815298       -2.19560480304283
O            7.61153834584160        1.14833204724776       -6.41661184113563
H            7.65255804117451        1.10215301732397       -5.44068126176321
H            6.67320081300572        1.33709574379614       -6.61393350924233
O           -4.89196356593022       -2.44712275813836       -4.77156896438654
H           -4.44633110545084       -2.25792351412459       -5.61954561942970
H           -4.54968941107826       -1.77586889250300       -4.15024024557125
O            5.40144750626891       10.19423252530087       -0.87156237763544
H            6.18717055025051       10.35795066406233       -1.41858555175927
H            4.73086795883624        9.83935882181212       -1.48656405056976
O            1.39884512935618       -4.50785038978174       -5.92972169263622
H            1.84175494809211       -3.75369282419130       -5.49193135556640
H            0.46496917287511       -4.23676611620277       -6.02220055278744
O           -2.06902082406794        3.38937050178035       -6.75395502242103
H           -1.11712263613077        3.23270224406786       -6.60435631238860
H           -2.15614546269494        3.37500335236489       -7.72187384258837
O            4.73942057260914        1.69786607363717       -6.86471463509668
H            4.11609942366552        0.95009778568161       -6.80549447335222
H            4.30382000140348        2.39345649055339       -6.33653187113793
O           -3.31903520839524       -2.01070086422167       -7.25768283796095
H           -2.67715173956776       -2.60865584874794       -6.82419319965771
H           -2.76969890532129       -1.32145210716632       -7.67553533431857
O           -0.56266831483938        2.74584022547733       -9.14064318718916
H            0.06237530781058        2.63080716435140       -9.87190790029307
H           -0.00491941641934        2.78019219761684       -8.33964296493882
O            1.51184125506171       -0.05298566091415       -9.06813586332258
H            1.94797419950962       -0.14371785852652       -8.19880213925829
H            0.55653599731332       -0.11943054327974       -8.87794786240712
