370
 energy: -49.215830312599 gnorm: 0.000979319961 xtb: 6.6.1 (8d0f1dd)
C           -1.14428999993508        3.59961999984263       -1.73079999970079
C           -0.59742999997365        2.51442000001209       -0.80840999993938
C            0.00215999998652        2.63194999993760        0.52347999995145
O            0.31288000002148        1.36895000000020        0.94992999996501
C            0.29261000009837        3.74598000003842        1.34780000013822
C            0.08892999981408        5.15480000007437        1.13179999984777
N           -0.44323000001205        5.73411999987581        0.03951999999829
C           -0.51128999990103        7.24367999997766        0.14968999998964
O           -0.61742000001627        1.23505000002744       -1.17726000001515
H           -2.22297000017231        3.44537999995377       -1.90501999998886
H           -0.96030000005200        4.57983000014500       -1.21475999996976
H           -0.63400999984938        3.56275999999695       -2.70792000023370
H            0.75368000006362        3.48080999992561        2.30591999993145
H            0.42532000005028        5.78254000001189        1.98549000007965
H           -1.56451999997291        7.57244000000524        0.04803000005142
H           -0.11172999999809        7.65095000000954        1.10037999994002
H            0.05481000000354        7.69888999994610       -0.68693999999600
Fe           0.00066000007760       -0.00352000004213       -0.12860999990077
C            3.69134999984262       -0.81567999995200       -1.73453000006157
C            2.47971000010156       -0.74468000009872       -0.81016999961495
C            2.28405999978153       -1.31926000010395        0.52357999997589
O            1.03489999975704       -0.95740999999985        0.95058999989981
C            3.10596999968930       -2.12418999987829        1.34912999995069
C            4.42928000005202       -2.64901999990505        1.13373000068093
N            5.19635999977011       -2.47779000019552        0.04095999987143
C            6.53988999999974       -3.16920000008704        0.15232000104768
O            1.38074000015265       -0.08946000012063       -1.17918999989840
H            4.09388999998109        0.19568000001981       -1.91551999999140
H            4.45096999989138       -1.46022000009337       -1.21633000027167
H            3.40351000006818       -1.24572000001389       -2.70856999959895
H            2.64721000024842       -2.38955999993475        2.30830000003227
H            4.80674999994264       -3.25126999999751        1.98861999989631
H            7.34883999997697       -2.41905999994809        0.04919999994018
H            6.69466000009019       -3.71658000017880        1.10402999979932
H            6.65330999998220       -3.88824999964007       -0.68298000006473
C           -2.55270999979087       -2.79358000010931       -1.72745999970208
C           -1.88396999970590       -1.77804999988655       -0.80604999975025
C           -2.28324000013127       -1.31716999985432        0.52638000013196
O           -1.34207000001602       -0.41925000012962        0.95251000009491
C           -3.39342999966509       -1.62015000018875        1.35138000017813
C           -4.51570000006707       -2.49558000001558        1.13443999949479
N           -4.75574000011525       -3.24251999987933        0.04065000006372
C           -6.03316999987960       -4.04989999998774        0.14978999954377
O           -0.76529999996352       -1.15759000016997       -1.17602000014847
H           -2.77182000005718       -2.33464000002826       -2.70613999982445
H           -1.88313000008796       -3.65396999994410       -1.89814000010482
H           -3.49595999971707       -3.11928999998003       -1.21250000040499
H           -3.39168999998371       -1.08957000001114        2.31020999974241
H           -5.22704999995452       -2.51664000003801        1.98858999968147
H           -6.58373999990924       -3.90759999990323        1.10160000014797
H           -6.71007999978156       -3.78095000010200       -0.68514999989897
H           -5.79713000000372       -5.12733000004750        0.04434999960740
O            1.83379463321917        2.53388779733723        5.01499600719223
H            1.91767336807198        1.85405776018226        4.32378952509608
H            0.87725199178509        2.63414980846851        5.13489302073539
O           -4.88100537560653       -2.13708574630573        4.94822519765316
H           -4.01894925851001       -2.41901459352323        4.58862684094507
H           -5.24582013097979       -1.50814030521965        4.29651918103011
O            1.44727842805827        7.02639855730456        4.68487067603752
H            2.06026654905931        6.29182376377316        4.49369606348323
H            1.51875697595385        7.15055181147008        5.64820540813866
O            2.06101127145030        0.60980845712554        2.99525846670836
H            2.89656123615855        0.52708723102137        2.50009325508394
H            1.40243032798929        0.73667323270731        2.29359360804822
O           -6.09080248774319       -0.21051666196258        3.03908184694430
H           -5.65580105623393        0.63206232588895        2.81875259900135
H           -6.40360020587802       -0.51794317889332        2.16861832243179
O            3.41422863826652        4.82204855131823        4.12089996119160
H            3.93173647359711        5.04508323403932        4.91862199148809
H            2.88853254356720        4.04147929430820        4.38006497126299
O           -2.27534836414903       -3.03289714447015        3.91777405842422
H           -1.65438519945845       -2.29702705404563        3.77841157540280
H           -2.27871996977117       -3.50194929116458        3.06176933186988
O           -1.21887023304102        7.29653428846081        3.52482465817949
H           -0.35675142681491        7.19516211802887        3.96923892404225
H           -1.27336094067443        6.53365831628014        2.93005248942346
O            2.90342733765154        2.23628732642134       -0.29210100525911
H            2.36631086837715        1.48937951097816       -0.59835433743709
H            2.25271587402522        2.80995341013961        0.13504325930332
O           -6.87281653142002       -0.73819423773025        0.21573029682084
H           -6.23170794400357       -1.41480116602109       -0.05378151086561
H           -6.56678521787517        0.09728671046933       -0.18762188491776
O            2.36615995343378        6.19247018695976       -0.97945948548678
H            1.47957974513690        5.80476038777455       -0.91341404189006
H            2.69918627243201        6.17963392112844       -0.05915293870665
O            2.74832295336412       -3.90592045558099       -1.42803858301391
H            3.39497042723507       -3.36504066796188       -0.93642971960263
H            1.89630524865475       -3.68020777532282       -1.01678799690572
O           -2.73798861767293        3.67706632608605        1.15879573139931
H           -2.06342565003987        4.31982346115414        0.87799390188722
H           -2.30610222627642        2.82589402377577        0.99141537698357
O            5.76139492978020        2.60626322521164       -0.18861875554695
H            5.85694263903229        2.91620401832697        0.73133853161612
H            4.79491584645361        2.57470074975513       -0.32293614626039
O           -0.49544341595847       -0.86140233788217        3.39088179480030
H           -1.11108252763201       -0.14392603023024        3.17703770788875
H            0.00412963588619       -0.94720571428698        2.56373296906466
O           -2.42307293379417        8.69430813428901       -1.95815909014818
H           -1.91226578757093        7.92652565640500       -2.25559402624132
H           -1.77983834226895        9.23861083019021       -1.46771147097136
O            4.89092163639275       -5.53052016469306       -2.38319068520620
H            5.40606757094712       -4.76907730082351       -2.69999293606185
H            4.07305404948237       -5.10488650340660       -2.06552275623838
O           -3.46780391936621        0.86890654307478       -1.17841608515271
H           -3.52838834043222        0.05094510008403       -0.66271801353632
H           -2.51242630315772        1.02004414109998       -1.22123027387375
O            6.12634625177011        7.21889186290370       -4.42236042790485
H            5.80724729199410        6.85303530441917       -3.57855917388943
H            5.87635068170798        6.55179684277442       -5.08065118529286
O            0.33228154819604       -3.49270792814372        0.07116614392623
H            0.01992166087014       -2.66163170582601       -0.32214714599924
H            0.69822928804824       -3.21424915762263        0.92196156993441
O           -6.47006144298402        8.87258306313934       -2.81970209443068
H           -5.75154921688090        9.50823830284183       -3.00536810325271
H           -6.06176637958740        8.24947138395848       -2.19225502179601
O            5.90287063219646       -2.86936610072989       -3.09328622663831
H            5.95662037233668       -1.97429917492263       -3.47484754483438
H            5.75597019404652       -2.71297822973378       -2.14221536958394
O           -4.92613171841470       -4.58492285382217       -2.87204812271239
H           -4.87809231467430       -4.19708129737210       -1.97901668742092
H           -4.20507531132377       -4.17228110846731       -3.36901694302410
O            0.77143576868726        1.30843989506637       -3.47281827048656
H            0.94163875092183        0.82081654143687       -2.64728617587911
H           -0.04093567782255        1.78772177964051       -3.25512709750799
O            2.49983427586483       -3.34054305111980       -4.35878591276623
H            3.33688268581881       -3.66815788293757       -4.73995249033898
H            2.56338687263675       -3.50337328763581       -3.40396230710586
O           -4.69976174865010        3.49704127466847       -6.44820312904076
H           -4.29919501886483        2.86024746946054       -5.83525823193175
H           -4.00992233964623        3.64946953414211       -7.11670800205433
O            2.71088176463439       -0.85760271818811       -5.98584895557984
H            2.56083731769122       -1.62875990774242       -5.40885220560682
H            2.89999048024771       -0.10914309681307       -5.38866280478079
O           -0.85532029334147       -1.02269984408785       -3.98496252647258
H           -0.31701402536277       -0.22174939124372       -4.06406398203257
H           -0.89787114597515       -1.13308033104074       -3.01847861606419
O            3.32922493322053        1.61411840743802        7.35747879148997
H            3.19565093458961        0.64972521824848        7.36545729830819
H            2.83355709306300        1.92022972155629        6.57458507049657
O           -6.35446230187150       -3.66454785122474        6.90258019799075
H           -5.82254274632104       -3.15331508242440        6.26321469436743
H           -7.26614671615288       -3.36567177423678        6.72986473520373
O            1.68893769543704        7.27330993220042        7.53959076708972
H            2.35590807395579        6.80623651153976        8.07631763633811
H            1.04388699032176        7.61769001411708        8.17660667212207
O            2.22173345226400       -1.85725199508200        4.63352980062034
H            1.91206440055046       -2.66513291409367        4.18610384258419
H            1.93755563935171       -1.12081452319114        4.06258477729994
O           -8.01332802388676       -0.03689457717845        5.16283865828673
H           -7.34971450857444       -0.11098139278521        4.45243709840378
H           -7.67907750585045        0.66216633019308        5.74404454060736
O            4.85725460767639        5.39777992733574        6.53805844167417
H            5.32409886038430        4.55399875313967        6.68591260648734
H            4.46097221118705        5.61438084205102        7.40301450005243
O           -2.03768674451130       -5.12140989949708        5.84621325685535
H           -1.33372246214226       -4.83300080293787        6.44856290426966
H           -2.18026121654169       -4.36630070580345        5.24376768057625
O           -3.95985045997103        8.19697561028597        3.06075919979514
H           -3.05984278252559        7.90400537110399        3.30202455077079
H           -4.30990655995585        7.45087450840234        2.54200800611030
O            4.57836799663893        0.45584480473580        1.44095317321401
H            4.74361969013742       -0.37556953454316        0.96179768209151
H            4.07066402612934        1.01617950659083        0.82415329653730
O           -9.60626844271780       -0.26371548607225        0.93426991107141
H           -8.68556063133953       -0.50083605349238        0.71078101854519
H          -10.15321050641862       -0.73619533717402        0.28811043738414
O            3.35638710213691        6.47277800101894        1.72545484891118
H            3.35682472643449        5.90609109261365        2.51959267880952
H            2.90110662063533        7.29238820500354        1.99263530460401
O            3.06495825408894       -5.65364022428329        1.11178218831719
H            3.89826300206974       -6.11778632510177        0.91446710455129
H            2.89267108351462       -5.12631648291694        0.30780279987050
O           -5.04146692613550        2.22378068526942        1.99243889246860
H           -4.20719104059334        2.69555324011530        1.83461751417284
H           -5.39456424304743        2.09745905369688        1.08933842719729
O            5.82918375512723        3.60253060770595        2.61974851952266
H            6.17695592647123        2.91471975667570        3.21718578378773
H            5.05585374399138        3.97168144241179        3.09047702254862
O           -2.13092812448841       -4.51717885115536        1.35217589092838
H           -1.38119974915249       -4.15117408875328        0.85509764280022
H           -2.92785671577324       -4.19309256554892        0.90144194658507
O           -0.44308108019331       10.28032806771200       -0.53402542320736
H            0.47099828110755        9.94526804660415       -0.59554530812899
H           -0.63841435921363       10.24957797893870        0.42210313011351
O            5.65099254663475       -6.77702547325176        0.14908277331013
H            5.44762691193820       -6.40595304257356       -0.73167654747444
H            6.36150195012286       -6.21989420990024        0.50349765686241
O           -6.04803978214239        1.95338381987638       -0.77578006932823
H           -5.16626053489881        1.60769488031938       -1.01277342082443
H           -6.07804824292276        2.82158394919200       -1.21833994937937
O            5.08784416916983        6.10961841266078       -2.04110244624057
H            5.53297512309470        5.98516327895882       -1.18443155995796
H            4.14325836704658        6.12204618915531       -1.79931604807200
O            0.11415563940333       -6.08770337234453       -1.15481732078834
H            0.73234361115567       -6.03479767109163       -1.89926831071574
H            0.15543064818024       -5.20999088244390       -0.73195040307097
O           -4.89728802480785        7.16913083828837       -1.09179360858730
H           -4.05388464708402        7.62355338684940       -1.28458570372642
H           -4.80725954551798        6.80267811508800       -0.19278226491567
O            5.90171275232115       -0.10166186663548       -4.21161379111211
H            6.25571743896926        0.08571856721204       -3.32258357657952
H            5.11324949154970        0.46422607108031       -4.27836005181704
O           -7.70279807939737       -5.12073839043117       -3.51124195455591
H           -6.76001177032539       -4.94960812405303       -3.33157863902079
H           -8.14962252723948       -4.96071508936326       -2.66573524330727
O            3.63468381382542       10.83136114813727       -2.32568433704845
H            3.05445276836042       11.60884127370059       -2.34925704219528
H            3.21335984762890       10.22344959365653       -1.69079019821265
O            4.35620533010684       -7.95792647672262       -3.87802606823774
H            4.35481031792482       -7.60628815879801       -4.78622779714048
H            4.54255220100754       -7.17256165474741       -3.33031188241912
O           -6.50369353461857        5.11473897623708       -4.80549296752152
H           -5.82898847888607        4.70305263259612       -5.37752346253720
H           -6.60407188325368        6.03598946854580       -5.10727531421759
O           10.36976076862313        8.83393985517685       -7.19468740303852
H            9.66111458028041        8.91828897916298       -6.53177782174983
H            9.90360350431241        8.71543925556534       -8.03769108551502
O           -4.67949587801149       -7.55005672409609       -2.88085989345103
H           -3.87595622413190       -7.69732336977403       -2.34838800081678
H           -4.78625306883765       -6.57849758857399       -2.88938564426802
O           -4.99702462056775       10.00615843506394       -6.16594518078836
H           -5.64716318451510        9.29235413303052       -6.03003596762256
H           -4.66483581627576       10.20432680193820       -5.26965897845097
O            5.13345646959790       -4.02981042188299       -5.61169277124171
H            5.27353992113531       -3.24224779782359       -6.16573635901114
H            5.49597645051919       -3.75473398215398       -4.74923053869108
O           -9.90811034598283        2.04165142833604       -7.87101788379917
H           -9.58027332277888        1.20918860224994       -8.24532654252157
H           -9.14021672567791        2.42444372572501       -7.40907960313364
O            3.41827475832010        1.58583336192749       -4.36473291105696
H            3.80034316899093        2.33161462869440       -3.87674974948678
H            2.52237871415272        1.49275833623715       -3.99049432124577
O           -0.08194294191431       -3.13041003504241       -5.70714948695707
H            0.78882691058602       -3.30361738875803       -5.30321198404703
H           -0.44698196549207       -2.43167054774817       -5.13404943026478
O           -2.55905944413438        3.79237013895797       -8.31206801042113
H           -2.38651949240179        3.13518579343260       -9.00191056139169
H           -1.67118038828450        4.12185439380876       -8.08062743127514
O            1.02099205347771        0.07914566827387       -8.13697311843548
H            1.61275968599774       -0.27405769922120       -7.44369582967992
H            0.42276820252501       -0.67057957786749       -8.30964389059785
O            3.16349517587910        3.12664395953837        9.78082616903968
H            2.88051750540291        2.47994007442032       10.44460735152939
H            3.23241930960489        2.61687905811668        8.95306782911938
O           -6.02024512728596       -4.86142107612289        9.58329218007255
H           -6.21700203858261       -4.38500729199664        8.75448567330105
H           -5.37771178034541       -5.53748925751855        9.30275391693268
O            3.63512178978383        5.88409058714362        9.19846293315046
H            3.44931499901391        4.95002524681177        9.40881032405287
H            4.28027510896333        6.16720321877794        9.86418997335556
O            2.85648401830592       -1.21972417662113        7.32493011108200
H            2.98353259171225       -2.07935178635362        7.75452821487437
H            2.61429451582324       -1.43631149649579        6.40596537681460
O           -8.98764562539980       -2.57148944578387        6.22895965523636
H           -8.66285485218365       -1.71590542009560        5.88731372241575
H           -9.82141220147860       -2.72462951241562        5.75901195000261
O            5.98395363325265        2.77861784291882        6.96004053879562
H            6.31698713275728        2.35660035970953        6.14602343369244
H            5.13153860863776        2.33380019330367        7.13574146319265
O           -4.44523377046976       -5.90454926643931        7.36490005980169
H           -5.07943777939971       -5.19873458638320        7.13028690645671
H           -3.64456127388713       -5.69856895781759        6.84590726541803
O           -3.61891443793879       11.02557859529158        2.80498225283938
H           -3.81849479530075       10.07599345969659        2.91835941700515
H           -4.46306481044097       11.43319041028866        2.55820157343095
O            4.91752529142140       -0.62301147777003        4.13733167118844
H            4.08287372360371       -1.07636274100956        4.35045294170984
H            4.80208858205494       -0.32343724474811        3.21405954295860
O          -10.52879483715060       -0.57937948127154        3.72461390168791
H          -10.26555430103549       -0.46272334177070        2.79090156573311
H           -9.72066157041970       -0.36578936194803        4.23099889826620
O            1.84059215603636        8.92232381929592        2.49585501923076
H            0.98824873255506        9.39239782527798        2.43515907678601
H            1.73495088535612        8.35981925267945        3.28863771384963
O            1.44175559873171       -4.33069958713832        3.17723939172937
H            0.69691436949181       -4.94678580507542        3.27141556480046
H            2.02858597258066       -4.76975597648283        2.53213490172450
O           -7.03558153137014        4.28187465599136        2.41933717967348
H           -6.35453049289787        3.58189823962159        2.46069182542628
H           -7.72856169346867        3.86277900871256        1.88757581896771
O            6.81403875504393        1.49893823562039        4.47439983629435
H            7.66209511867639        1.12974712730037        4.18545162981210
H            6.17987201319876        0.76350382614994        4.38998352113115
O           -0.87951476337208       -6.21765195912465        3.31228865719906
H           -1.36990682874707       -5.67661136992934        2.66034776786825
H           -1.28407496823350       -5.99787909079246        4.17120417239504
O           -0.91144807964421       10.01120425003590        2.36446927279634
H           -1.05921108527286        9.12336826991618        2.74903755756121
H           -1.75790946340713       10.46928755315578        2.51006168255656
O            6.64870520969965       -9.58476940713006       -0.00791344668869
H            6.28059548584386       -9.89340581634332       -0.85869061183538
H            6.30637315418124       -8.67396705829353        0.08947829672656
O           -8.61510604479130        2.54727396000894        0.70242046102686
H           -7.82372978366360        2.37506051357259        0.15378162894585
H           -9.02977327222250        1.67243063643526        0.81900151690301
O            6.00876802249036        5.85019768160407        0.72453570451580
H            6.14066722930743        5.07236779399711        1.29574893336543
H            5.13727382885751        6.17909704706002        1.02164655304881
O           -0.50190285258516       -8.06072751058821        1.01579980771696
H           -0.59779710224082       -7.53444545245742        1.82594967070508
H           -0.19533423719168       -7.42107270780714        0.34261301658391
O           -4.73486871729773        5.88002435642091        1.50863295651469
H           -4.08171427205020        5.16191902877196        1.39988079638775
H           -5.54410033860958        5.43235413029493        1.81356280091693
O            6.69002684802357        0.18816219044437       -1.47048478966589
H            6.33837815147715       -0.53254100763892       -0.92077619391570
H            6.43381405437941        1.01243361388679       -1.01797540311494
O           -8.31052277511913       -7.18306367985265       -5.43411985340613
H           -8.12691700781244       -6.49057143788650       -4.77055094106669
H           -8.22205235055416       -6.73896057431960       -6.29306541153968
O            2.28084553629702        9.11402821117281       -0.44587456119379
H            2.33597059648690        8.17890984384881       -0.71320723301419
H            2.22597690602570        9.08244985942573        0.52397619014160
O            5.45999382411790      -10.35407154281243       -2.58902420140019
H            4.66257412926376      -10.90705842461639       -2.65926152254178
H            5.20193297583870       -9.52425831261827       -3.03352979767643
O           -6.04118057739276        4.55268879416936       -2.00095707454851
H           -6.22794106636662        4.70558547755204       -2.94561788111960
H           -5.67786359391170        5.40151598798499       -1.68588184685712
O            8.18825848932179        9.07223212377918       -5.37304004802819
H            7.76844838361230        9.87908332483794       -5.03185128447153
H            7.58189118933579        8.36996144712904       -5.07583424062780
O           -2.27616439203628       -7.80799663602426       -1.27439650507012
H           -1.52152942071911       -7.19165670104321       -1.32325394850865
H           -2.11163832885683       -8.29957288772415       -0.45221017941502
O           -4.10860770043437       10.53319493513056       -3.40847091785841
H           -3.51863025502673        9.91430371050935       -2.93805811732047
H           -3.78029978058963       11.41519931416763       -3.17815403877172
O            5.44821936239374       -1.40943343137784       -6.78769399224672
H            5.78771345666247       -0.94441830297840       -5.99981167548659
H            4.49808945100176       -1.21249122406938       -6.75295453132616
O          -12.62541520882753        3.05834459474958       -7.87161221561950
H          -11.71366669058387        2.71156737985416       -7.91175552296170
H          -12.72967952220091        3.38238391933352       -6.96139845813847
O            5.88571270960083       10.19176902438978       -4.06415666383495
H            5.86853596193669        9.21589566622915       -4.12290310478867
H            5.14225559625658       10.42113472948943       -3.47623030661917
O            2.67061538729747      -10.29476144013999       -3.34799887603430
H            3.16203703690146       -9.48025999921318       -3.57044102169066
H            1.83416238323942       -9.99381141078402       -2.96059036089868
O           -7.01174960503666        7.93401851701357       -5.46742312344813
H           -6.88745819524366        8.22908759581784       -4.54411299087677
H           -7.94790079282416        8.09324677897914       -5.66312941672882
O           13.23675096400964        8.55447173182617       -6.88471830717414
H           13.31375286181539        7.98869371648675       -6.09846073648503
H           12.27661187917634        8.67889560120880       -7.01047426230130
O           -6.48914449023646       -9.30007920176709       -4.38553269097109
H           -5.85726168013200       -8.76541600874315       -3.86622756984634
H           -7.11903880611049       -8.64985210847124       -4.74311979528007
O           -4.45450375691749       11.54496456736519       -8.54862448886209
H           -3.85087824096190       10.96463949223155       -9.04155725030728
H           -4.66165933256304       11.05327302739038       -7.73123664941309
O            4.34296548251893       -6.65548509736170       -6.45575826314638
H            4.63911296734576       -5.76295595049344       -6.19326253663966
H            3.78759163038790       -6.51908155610667       -7.23863281619642
O           -7.62324754661366        3.10090566740593       -6.51087395890153
H           -6.65418082024546        3.14808204459996       -6.59597819792914
H           -7.80900646048596        3.67907893192488       -5.75112139083946
O            2.10255707499104        2.59527064504757       -6.89129480385532
H            1.77556767622283        1.78021184730192       -7.31668333402721
H            2.55620756763558        2.29168421585500       -6.08421649407620
O           -0.66215181556821       -2.27812713333600       -8.38740923450398
H           -0.46632888674832       -2.60380266811376       -7.48823483590881
H           -1.52113389046169       -2.66689400343497       -8.61342826298998
O            0.22905912886356        4.55891741176984       -7.77606697485768
H            0.88789188212402        3.93879497628032       -7.42260506319995
H            0.53459985153766        5.43493267567564       -7.49739424114948
O           -0.37925425506854        2.22982659794682       -9.60802251213796
H           -0.11032298118846        3.01057769555684       -9.08515527233738
H            0.07093613894263        1.47955899284957       -9.17579657646491
