319
 energy: -43.431725106887 gnorm: 0.002155532968 xtb: 6.6.1 (8d0f1dd)
C            2.20440999934591        3.61795999943634        2.17379999850109
C            2.56990999975249        2.85178000013937        0.90978000067986
C            1.79433000000402        1.85081000011520        0.32834999953057
C            2.27200000021089        1.18309000053657       -0.90644000027023
O            1.41600000022976        0.25471999983951       -1.34491999999266
C            3.53440000013979        1.59477000012272       -1.46060999996497
C            4.23769999998387        2.59093000065046       -0.81716000059957
O            3.83860999973556        3.26456999959818        0.35288000012576
O            0.60509000014942        1.37718999996716        0.75545000021513
H            2.95073999992733        3.48147000009716        2.97793000007366
H            2.10540000000438        4.70442000006777        1.99385999996604
H            1.23509999988062        3.23223000006991        2.52765000047396
H            3.94476000009570        1.13905999984794       -2.36939999999184
H            5.21069999997123        2.96687000009868       -1.16829000005321
Fe          -0.00002999984554        0.00008000003082       -0.39693999979390
C           -4.23527999958550        0.09985999959191        2.17404000048262
C           -3.75467999997521        0.79955999953603        0.90997999956028
C           -2.49999999996598        0.62856000004993        0.32855000021055
C           -2.16076999946422        1.37600000004949       -0.90633999981692
O           -0.92877000012685        1.09901999999492       -1.34489999994168
C           -3.14868000009963        2.26319000043291       -1.46053999984800
C           -4.36304999985920        2.37403999938527       -0.81708999951932
O           -4.74672999998588        1.69161000025946        0.35302000012027
O           -1.49507999989704       -0.16432000013550        0.75574999989931
H           -4.49066000001226        0.81442999989260        2.97806000032938
H           -5.12636999997823       -0.52954999985665        1.99408000003231
H           -3.41631999978125       -0.54629999991670        2.52803999987524
H           -2.95933999998200        2.84636999987172       -2.36940000020677
H           -5.17524999998949        3.02850999980849       -1.16827000007713
C            2.03171000013836       -3.71774000019521        2.17354999894298
C            1.18508000004420       -3.65129999974920        0.90974999908332
C            0.70577000021013       -2.47920000003579        0.32838000004519
C           -0.11158999995875       -2.55912999969218       -0.90622000044340
O           -0.48776000004998       -1.35366999986070       -1.34467999962699
C           -0.38625999966499       -3.85828000013206       -1.46028999831853
C            0.12506999981326       -4.96536999958237       -0.81695000037896
O            0.90826000008275       -4.95646000001097        0.35293000030172
O            0.89020999996406       -1.21246000017113        0.75541999985169
H            1.54070999991628       -4.29606999999561        2.97772999989019
H            3.02218999996591       -4.17492000004067        1.99330000019954
H            2.18211999997003       -2.68544000003340        2.52748000006275
H           -0.98627999975103       -3.98588999996345       -2.36895000025634
H           -0.03578999987121       -5.99599999998799       -1.16804000004765
O            2.46141339564931        1.15016413830291        4.55991028232003
H            3.19705192336959        1.26976645048327        3.93173156095106
H            1.90568673645510        0.45503368107557        4.16060262417202
O            0.84011168215501       -0.98949774648343        3.51663302491027
H            0.42002401726581       -1.83846554668915        3.76715300530374
H            0.79842507458272       -0.97092403176433        2.54606163254714
O            0.99168082165252        3.56332117521839        5.27097583838110
H            1.46792400332315        2.75646329404297        4.99327777861255
H            0.08232783299109        3.40199403052941        4.96056211143569
O            3.21090370472920       -2.51587259065661        4.57733333367064
H            2.84411315569419       -3.41737146526011        4.67129060269614
H            2.44628850482330       -1.96048695434670        4.33711920549655
O           -1.65565207451265        2.89927883559935        4.32568737939720
H           -1.65045749738159        1.93079434432713        4.44166403316059
H           -1.61876736796116        3.01882526297110        3.36127450107728
O            4.75210436931710        1.48715520530052        2.56649658781855
H            4.69300345984979        0.54041467464494        2.33092623759037
H            4.38595805519590        1.97565316928709        1.80425764177414
O           -1.60173473532135       -4.31405616223916        2.02733460746052
H           -0.82690337040818       -4.57628723243105        1.49586954501365
H           -2.03959115549215       -3.65021114128507        1.46358289416192
O           -2.10611068548552        5.93685586075633        1.54815079675032
H           -1.86454119468581        4.99376691784595        1.62849740672892
H           -2.45086185952247        6.19271173982229        2.42145466932781
O            4.64215087009061       -1.44899545886127        2.01264262703506
H            4.10061017199822       -1.52581499347906        1.20592565549665
H            4.10108188171125       -1.80213299519691        2.74484857829635
O           -6.73482155105479       -0.37011291569378       -0.03910452681466
H           -6.22958094185969       -1.13633031384673       -0.37422621857822
H           -6.06259281585285        0.31635580741676        0.12155649567612
O            3.65110485792251        6.12235768717255        0.66451884343140
H            3.70287203750686        5.15334165626893        0.56253643087262
H            3.97572185769581        6.29566525767558        1.56733359024051
O            1.57569013157122       -6.84416193524599        2.39520159545783
H            2.32038259784305       -7.32431456287065        1.99916094827190
H            1.31887764643882       -6.19768842716565        1.71163672231235
O           -1.50847603499614        3.13624252298344        1.51601685650599
H           -2.28696594947629        2.76962433405390        1.07204984526115
H           -0.78231408691741        2.55256813837154        1.23314780632208
O            6.78186670778101        0.52841098326476       -0.92884250237934
H            7.04926581973312        1.04844105853202       -0.14664464249387
H            5.88022470181899        0.82056918931041       -1.11986106341597
O           -2.81813277643236       -2.51522108484411        0.11354211592783
H           -2.19303979034909       -2.86900198860148       -0.53521941113654
H           -2.42518384936965       -1.65502376124713        0.33014059311275
O            1.32365815086160        7.88463787897722       -3.74910301293727
H            1.55135855727798        6.98124730831411       -4.01989443866127
H            1.47010986001653        7.87074044643126       -2.78304548889532
O            3.32052051363624       -1.77508582798568       -0.60077873811158
H            2.63261776698457       -1.08610033916178       -0.68755933995937
H            2.81256754360406       -2.58477249580063       -0.44451021809748
O           -6.71135132883043        2.05215954718222       -3.08114051067919
H           -6.09426956850669        1.72906260546455       -2.40456542807701
H           -6.13385717643199        2.22411967007960       -3.84465457896171
O            0.01839695612052        3.73471780242988       -2.32400022032785
H           -0.23451586155075        2.93290529591168       -1.82793282197363
H           -0.12702443659821        4.47918100247408       -1.72058944670079
O            0.53345837558361       -1.44566136964938       -3.93072292572336
H            1.49911936928960       -1.38426433296407       -3.81482372041828
H            0.19465865614431       -1.43538493303535       -3.01844130182974
O           -2.02165143628518        3.53138362840122       -4.35668693504592
H           -1.91840349205226        2.56368988661163       -4.43280532510825
H           -1.30330084070759        3.73671298015531       -3.72795782796780
O            1.29288716352476        1.58405176434915       -3.84159977816025
H            0.90223786642704        2.39992257098475       -3.48226515116344
H            1.35333866558794        1.03047833156222       -3.04428007108475
O           -1.52883677873529        0.62178531056577       -4.10131129731435
H           -0.82871049320961       -0.03997329659178       -4.23693655725001
H           -1.44913315730411        0.78319035864035       -3.14309374617838
O            1.82702382203215        1.15379066690605        7.44288505508305
H            2.11849194178793        0.29693807227008        7.80652707076208
H            2.07519659027786        1.13187514313980        6.49891156991481
O           -1.57600348727522        0.07135487006323        4.66223517145574
H           -0.77310111034327       -0.22912341609827        4.20255976047752
H           -2.28697941475099       -0.47274310457505        4.29884086395949
O            0.43999296213205        6.18582641857471        6.49867777948356
H            0.59105233591277        5.32263401283472        6.06467611576586
H           -0.52674351201558        6.23504969298167        6.61183821915459
O            4.81016728366378       -2.49472649249637        7.01209931592044
H            5.73058789336736       -2.29889557822604        6.75704358535816
H            4.31596059474390       -2.50604103483482        6.16818130477832
O           -3.79676604342297        3.77404150275801        5.99083878018851
H           -3.07494924704960        3.43452460718538        5.42853624673765
H           -4.48318180425774        4.04486274579607        5.35300902552966
O            5.53722586279590        3.83966577644680        4.21660379863242
H            4.93653328395929        3.90539068496150        4.98188879966225
H            5.23720888957802        3.05309797963001        3.72210345682515
O           -0.34229852465014       -3.48816277474321        4.52788489598422
H            0.35250199724895       -4.16254438846821        4.66240156999289
H           -0.82493813608632       -3.78538989187506        3.73523913974525
O           -3.31174867043717        6.57493115334488        4.09284077232372
H           -4.11532782541485        6.01782576858596        4.06032937293875
H           -2.99279162704757        6.51684090766889        5.01219674831612
O            7.24296684425053       -2.12768682408788        3.21844790268915
H            7.38025384950150       -2.98892815117794        2.78809827730919
H            6.37585220851044       -1.83321263713054        2.88330930934518
O           -8.62417136502621       -2.05084871174638        1.44077144292313
H           -7.97059373475845       -1.43908247453371        1.05010176695665
H           -9.42506874523424       -1.87400999058957        0.91517051576600
O            4.69952066956226        6.56190180755125        3.35229781038141
H            4.98281455965279        5.66325824331969        3.61640044740698
H            4.14573924495285        6.85388608412871        4.09569027722979
O            2.02862868722124       -5.40207949547998        4.92308207707371
H            2.82282238793727       -5.82439354908313        5.28972890711671
H            1.84091381152695       -5.91032299379187        4.11122338930380
O           -6.18954391568501        3.97795838926146        1.24969526099594
H           -5.68501247224797        3.17108978702079        1.03446645909886
H           -6.82187018610939        4.04672788586879        0.50978360650799
O            7.50703128648707        1.92355689515882        1.57213194116997
H            7.74597360483585        2.81486671848072        1.87922482119507
H            6.60862865262597        1.78307944418942        1.92974775609721
O           -4.19271398113649       -5.58869529519573        2.69308864529357
H           -3.36795528619206       -5.12164362628629        2.45394738663848
H           -4.91107062547884       -5.07881766594676        2.27418496377407
O            1.83153803448069        7.68651745231037       -0.85834897343897
H            2.44388291913698        7.11849608630666       -0.35438505258511
H            0.98227047128631        7.20991125308675       -0.81238343143152
O            6.62409810320343       -3.43698176174779        0.79093068134942
H            7.22640649268695       -2.85913873673798        0.28327828624559
H            5.87975625375551       -2.86032573902247        1.04056319250067
O           -8.75037751706990        0.34270136107518       -1.95072100812462
H           -8.12351329475087        0.05890589832828       -1.25873158741701
H           -8.20861872579328        0.97395497186931       -2.45541805951842
O            5.90169348912352        7.40101393742041       -1.30983177704397
H            6.23024119539023        7.25094465307953       -0.40238505933126
H            5.30690966055097        8.17427994717080       -1.24753317208561
O           -0.37480000446729       -9.03962665348987        2.83029921159184
H           -1.19698860598670       -8.64794283909711        3.16597030674246
H            0.23652226340279       -8.28866834526280        2.70693511378591
O           -2.84722249929489        6.08192519233715       -2.78743659787967
H           -2.76873897579124        5.22259926977548       -3.24383226113601
H           -3.45035249911174        5.94239801141248       -2.03412799330866
O            8.54478076649909       -1.66934753615330       -0.61940550081085
H            8.95651499820704       -1.31462671179908        0.18938130577549
H            7.93872044085686       -0.95382892410782       -0.88145207907453
O           -5.33389580301298       -2.71531734132776       -1.05258677842231
H           -4.44601070383054       -2.62177717971261       -0.66307989588273
H           -5.17943871680302       -2.89367264680632       -1.99212230835611
O            3.02560095238269       10.28616984606806       -3.86197338170449
H            2.43124329197521        9.51911478401979       -3.95282501897373
H            3.41496109437971       10.16207513370384       -2.97665213874619
O            3.46118285796206       -1.42241134440627       -3.59986165268633
H            4.08079580765492       -0.68590579003425       -3.71688472812635
H            3.44656461700297       -1.57900137692397       -2.63725962154190
O           -4.74982198079336        2.49224353166269       -5.13954782590107
H           -3.96878347974437        2.99935093430455       -4.85073380893274
H           -4.35571330290515        1.80242182332214       -5.70232340875062
O            1.93036182915939        5.05274296077814       -4.16532318151850
H            2.71955954606495        5.12475242286773       -3.59777386654552
H            1.27909961347075        4.60250972125247       -3.59285748952630
O           -0.20314291167740       -2.93972155950290       -6.19396957304441
H           -0.04064320537856       -2.42131508356825       -5.38274728693933
H           -0.16652386831026       -3.86791340398015       -5.91261311684360
O           -2.16247350944311        5.63637174688309       -6.44886723056161
H           -2.15345628968632        4.91808771325649       -5.78663687338225
H           -1.95814008043453        6.43947029624969       -5.93668074220693
O            1.58099794254322        1.21165153329512       -6.63148286526668
H            1.93340426542880        0.30581635753962       -6.69811093861209
H            1.46506447877742        1.33928656639044       -5.67019110748908
O           -3.02981499646297        0.55369811889545       -6.55984850220331
H           -2.54646545386683        0.51110472733000       -5.70965725840293
H           -2.38701381180568        0.97228788566106       -7.16242023119157
O            2.86020320741219        3.28080140285769        9.05534737345850
H            3.06142529832956        2.90573740660470        9.92532112071434
H            2.45728766345987        2.54725756253987        8.55263002876012
O           -1.05446679849226        0.43426978167386        7.47713953818865
H           -1.26704882877219        0.36162313524297        6.52514333334951
H           -0.13296264749340        0.75787025270095        7.50890894097159
O            1.60901858789565        5.96770338340058        9.22697943350083
H            1.21663919682103        6.08913032451871        8.34046096095138
H            2.02865927739529        5.08498677072543        9.19388289476584
O            2.54446248780530       -1.42679830260218        8.47865919193747
H            1.75419540951078       -1.88014989354877        8.12484283517477
H            3.31230755585906       -1.84428977781412        8.04654381924132
O           -3.13241266642223        2.32108790432463        8.49879288682336
H           -3.39233099336324        2.79213280544901        7.68199712077636
H           -2.45702429488285        1.67539592285955        8.21247504309789
O            3.64376622150816        4.20205484153212        6.39470974021621
H            3.51567693813269        3.94532617428871        7.32412679421513
H            2.77980010825708        3.99801271889683        5.98611924788463
O            0.00936775354238       -2.40940840238145        7.25916565801807
H           -0.43741671796974       -1.55002067254889        7.36852597596722
H           -0.18813684325297       -2.69370250723871        6.34500367696643
O           -2.45714581833876        6.13805189751150        6.94420610273356
H           -2.65243489238096        6.28256051074633        7.88215995984255
H           -2.89502763659216        5.29452735033124        6.72105562677632
O            7.51284226787102       -1.86734516434138        6.07810589729105
H            8.20079192231326       -1.19818152274010        6.21673857086278
H            7.44073508018205       -1.96358763038528        5.10934256530981
O           -8.92824568177885       -3.83026892967728        3.74360827953889
H           -8.87902475863275       -3.20207212655579        2.99764330584423
H           -8.07877189499662       -4.30080403422250        3.72876819254532
O            3.12855761897238        7.01107889641134        5.74215299150105
H            3.43941079961199        6.12814257523927        6.02449005928022
H            2.18000875682200        6.96761705723929        5.95337747539570
O            0.87587038346970       -5.18677867592759        7.68248387364289
H            0.54997812319247       -4.26723633282864        7.66975361954650
H            1.24327367252850       -5.31855271213610        6.78573091503649
O           -5.68860465444918        4.77395455525777        3.97167651427562
H           -5.81862486471522        4.48814997613189        3.04919444626854
H           -6.58753732539656        4.89218183434894        4.31581614030280
O            7.97451554293964        4.53000978414712        2.81627911197402
H            8.65138587457982        4.74950743910902        3.47440029094327
H            7.16340436020268        4.34283531155401        3.33008149749827
O           -2.82804585093546       -7.85592149578365        3.84855721165611
H           -3.14263542415549       -7.85333224305412        4.76586452042316
H           -3.29614837647018       -7.11447467588875        3.42304462141945
O           -0.62037215166022        6.21123474716369       -0.87436578607738
H           -1.33987266611043        6.28277799348539       -1.52362590252830
H           -1.07340367842037        6.16350839464181       -0.01451779886170
O            7.71205778523520       -5.82027471556704       -0.53360845716512
H            8.26868367105489       -5.31701630024439       -1.14943896542825
H            7.26943689568029       -5.12129852282888       -0.01835851453208
O          -10.75399125861634       -1.26690317323938       -0.41516985952683
H          -10.11726810513245       -0.69843388919271       -0.88968522376239
H          -11.46191260616209       -1.41956232741027       -1.05826015173625
O            6.86563443058504        6.93014939912844        1.44359246205805
H            7.34960687772691        6.14151992204382        1.75333956025281
H            6.09771355597348        6.95653816711965        2.04487952530854
O           -0.04160024778622      -11.69858222491144        1.76353662454870
H           -0.30775461834781      -11.57073214564357        0.83738074642233
H           -0.14173439184920      -10.81891452095711        2.17392820111646
O           -4.33996598816206        5.73968993203322       -0.32921508546964
H           -3.60714098077813        5.86426041708053        0.30379047506398
H           -4.97981471269312        5.18884727525778        0.15639135083710
O            9.24349495305793       -0.40401415077718        1.92860278261117
H            8.63638333140699       -0.98133766254236        2.43242214172159
H            8.74181058128823        0.42626606548902        1.81335378568197
O           -6.35908290115211       -4.00608659484275        1.38051281889239
H           -5.95660914235141       -3.65770705834655        0.56251603011845
H           -7.14515464533156       -3.43880161183699        1.48733551433143
O            3.91863351069826        9.66324502479835       -1.11150026624928
H            3.90574659887709       10.18545871422734       -0.29459150579984
H            3.19229955585884        9.01718480747318       -1.01223991394787
O            7.36934591736041       -8.67957267562310       -0.64576086483808
H            7.53020276037134       -7.71806598053480       -0.60206045216396
H            6.40854625873217       -8.76560145954545       -0.76355623441074
O           -7.78223980818057        4.11441075554711       -1.21442362431043
H           -7.47510325420732        3.43097126025704       -1.83967013377321
H           -7.82983124230503        4.93005594955569       -1.73717361667165
O            4.04426329882823        5.34921876896089       -2.29330685693052
H            3.98074063457859        4.70925992472540       -1.56744674534672
H            4.67551921729880        6.02267640059939       -1.98261714350115
O           -4.87626081919345       -4.06950519081343       -8.36713889534660
H           -4.16486259287143       -3.46563879533137       -8.07893339870230
H           -5.52185176594649       -4.05455443233130       -7.64028905238277
O           -1.49224924864587        7.86355372160200       -4.67630820212144
H           -0.56507273969121        7.93252083184263       -4.37851349704782
H           -1.95411186851519        7.35898723225453       -3.97663738127194
O            9.21428392391257       -3.96707836865348       -2.22525032251693
H            9.02875200911872       -3.17329537771829       -1.68722022346927
H            9.15836645301263       -3.66735233188931       -3.14611502219208
O          -11.09160246186662       -0.54982289120582       -3.41069690343906
H          -10.84723155683153       -0.57962750811184       -4.34942946200513
H          -10.29702156862897       -0.21566553633208       -2.95244696211050
O            3.27909265388184       12.49384710515720       -5.69195343003768
H            2.82855862985334       12.14541639577705       -6.47945633278967
H            3.22261242682703       11.77190616968191       -5.03802984457004
O            2.54587090639375       -1.57964442323548       -6.49812599730389
H            2.87058535983450       -1.58348832766377       -5.57549055532413
H            1.69002122678990       -2.04924190951890       -6.47594156023113
O           -2.93140464621054        5.84799611414528       -9.29862060373249
H           -2.80940576539809        5.83513325182971       -8.33032826076819
H           -2.12590417975756        5.41432342516344       -9.63318836105080
O            1.97646774458805        4.13497224875417       -6.95259170899567
H            1.92260533596286        3.16344981116885       -6.86433011449479
H            2.00125488516243        4.46789555166550       -6.03527878032838
O           -2.85345223418735       -2.28422650935910       -7.34875707052354
H           -1.96551547751399       -2.50985427536612       -7.01147707842502
H           -2.96082788400785       -1.33991633197924       -7.13137564339137
O           -0.36681495924233        4.65673017685351       -8.54302099128732
H            0.49228241022003        4.54884671031315       -8.10421283460798
H           -0.94037070026358        5.01581561734784       -7.83734145747333
O           -0.90988751164871        1.77980079642607       -8.08595082295157
H           -0.07501527029563        1.54552501586191       -7.63599948996606
H           -0.79695538236165        2.71796403542285       -8.32423511431701
