334
 energy: -45.973518357186 gnorm: 0.005425750564 xtb: 6.6.1 (8d0f1dd)
C           -1.66463000016273        5.17382999983368       -0.75039000011041
C           -0.67993000015748        4.87518000006923       -1.71752000003876
C           -0.00167000003645        3.64483999999999       -1.70736000003750
C           -0.29196999996031        2.59771000000751       -0.70919999996058
C           -1.32492999982315        2.93486999992769        0.27955999986595
C           -1.96270000011909        4.19392000001864        0.23283999996659
C           -1.69106999988296        1.94804000001528        1.43478000006171
O           -1.09336999998524        0.74681999998580        1.44527999999600
O           -2.52033999999876        2.32436000017379        2.34451999994330
O            0.37859999999133        1.46297999995262       -0.75351999995780
H           -2.18804999997475        6.13958000002062       -0.76415999994224
H           -0.43784000004219        5.62055999995223       -2.49320000003180
H            0.76694999996657        3.43104000005648       -2.46035000004896
H           -2.71887000004673        4.39050000007545        1.00929999999206
Fe           0.10739999998465       -0.14463999989091        0.39394999997999
C            5.46323000002916       -1.18306000000217       -0.89025999974722
C            4.68465000011357       -1.75773000000944       -1.93547999994029
C            3.26075000000115       -1.65389999993535       -1.88899999992651
C            2.56890000000731       -0.99364000003777       -0.82041000006619
C            3.39661000001363       -0.40356999996450        0.27089999998272
C            4.82436999999537       -0.52636999997029        0.17254999981996
C            2.75570999993403        0.32689000002820        1.41085000006682
O            1.36546999999604        0.41441999996720        1.39850999998586
O            3.42851000002003        0.87710000005395        2.36998999998634
O            1.22909999998145       -0.92155000003968       -0.83384000004860
H            6.56215000000795       -1.25306000000009       -0.91959000004996
H            5.17369999988715       -2.27760000003773       -2.77187999996852
H            2.65672999997584       -2.08778000001696       -2.69766999998746
H            5.41994999998137       -0.07162999998426        0.97993999998869
C           -4.13917999987737       -3.61617000018359       -0.88731000014288
C           -4.20712999947862       -2.56013000016790       -1.83330000015430
C           -3.25084999997465       -1.50037999990904       -1.78199999999261
C           -2.21269999999411       -1.44424999991715       -0.78619999990351
C           -2.15575000003143       -2.55995000007419        0.19871000006487
C           -3.13421000018044       -3.60756999994833        0.09630000010949
C           -1.06716000004577       -2.62013999988290        1.22136000002954
O           -0.08655999990888       -1.62708000012950        1.13180999995483
O           -0.94895000005213       -3.56166000001127        2.09917000002673
O           -1.35407999997666       -0.42017000004206       -0.77308999996221
H           -4.87183999988983       -4.43783000006270       -0.92444000014157
H           -4.99545999994557       -2.55326000007428       -2.60051999999865
H           -3.29991000001374       -0.68513999999648       -2.51589000004277
H           -3.06879999995731       -4.42726999997695        0.82836999998533
O            0.92602414482277        1.90368278059202        3.43366206540616
H            1.76754546502017        1.58723159852041        3.04071298764535
H            0.26518607341464        1.58143126275413        2.78991131292494
O            0.27636054646723       -1.35311270018951        3.65039102524396
H           -0.10542931140862       -2.09911710288891        3.14061761977595
H            0.61186075609422       -0.76859668591883        2.93980312338296
O            0.83538002980099        4.58952606629827        4.22787825306509
H            0.90031372820196        3.65069936051437        3.97615901918239
H           -0.09862124037104        4.78813721663988        4.03250965315980
O            2.52324206585573       -1.80550144574975        5.32736720142536
H            3.18416940306750       -1.93928996796683        4.62535145473057
H            1.70747760491031       -1.69347641168590        4.80088808825528
O           -2.45146577782517       -0.11480242447447        3.76158754992292
H           -2.40443969820846        0.72162039209868        3.25113184088861
H           -1.57921111804496       -0.50882292721923        3.59066451490922
O            5.28332523993584        2.85669180077740        2.10035325756889
H            4.86477589051997        3.49555270782425        2.70806148841858
H            4.63622017306159        2.12979077643325        2.09466237658912
O           -1.83336105214898       -4.53034223381415        4.59596504875562
H           -1.80488116862566       -3.70914518852582        5.12303996829866
H           -1.60534082791366       -4.22892461327487        3.69371853213451
O           -4.49227070903101        5.75207232551850        2.22519882114271
H           -4.91638271356504        4.87880889747920        2.19198666361044
H           -3.69240970686475        5.57377542876542        2.75392486841333
O            4.07554280911695       -1.97225200758968        2.89816806468540
H            3.34733828957961       -2.37461947114618        2.38461807856338
H            3.93824431663272       -1.01512979061555        2.75609126108716
O           -4.48212707696545       -1.09778190707470        1.88871880067225
H           -4.03968542376513       -1.76761088650415        1.34634769195530
H           -3.80872887763416       -0.82028573427632        2.53540045686133
O            2.27765327285405        5.91475457713265        0.13131358576963
H            2.00102689486470        4.99497743927657        0.23991984644671
H            3.02832439313788        6.04451720024861        0.73968320745283
O            1.92046453743080       -3.17199611347423        1.35144851412232
H            1.80876370380903       -2.46631886075196        0.68418763183927
H            0.99818519663860       -3.26957053265219        1.67284716436752
O           -5.25627821678291        2.93437631240409        2.34802416304890
H           -4.30915548942668        2.70877408675471        2.26640263749747
H           -5.65443271404391        2.67559084235527        1.49733665043033
O            8.25729522036532        0.94717364733769        0.28609774350766
H            8.02806448407122        0.97127084096347        1.23283093031182
H            7.74940586171855        1.67361955518003       -0.10751527483698
O           -0.34389355507690       -5.32010090522151       -0.23986856926655
H           -0.59007910654398       -4.83375676394403        0.57045404464664
H           -0.20540610856034       -4.60083869202659       -0.88703386523505
O            0.13673989119671        8.44264428586848       -2.20365985318816
H            0.97897057190959        8.00660406720595       -2.43182597931103
H            0.20214057982735        8.50877031986804       -1.23479884505904
O            2.26965386386629       -4.19602143678859       -3.35232166940912
H            2.81234740183827       -4.39769128145910       -2.56505414875324
H            1.43902640091737       -3.84180523190261       -2.98652774670073
O           -3.93488881170783        0.97838549292868       -0.20778039201771
H           -4.14107379898939        0.34660345378869        0.50983137131407
H           -3.02536729120837        0.72851814625647       -0.44032622831392
O            2.96066005239801        1.78188982403663       -1.84728268771382
H            3.48815072860582        1.21815673352645       -1.26123328270155
H            2.05615067529298        1.68142134589550       -1.49925090528326
O           -0.09000081698667       -3.01732783544682       -2.15090894008449
H            0.38828094289428       -2.28303997760133       -1.72593943620347
H           -1.01170899553392       -2.75243739428081       -2.01204332578338
O           -3.44589968870436        5.48845743527089       -3.36402624187485
H           -2.92154979456128        4.99113161565029       -2.72110479959754
H           -3.34912395536275        6.40751746574864       -3.05785032338671
O            3.25163268842097       -2.18201752448173       -5.37301052608389
H            2.89934025105725       -2.80961229458852       -4.71681293196476
H            3.21336784814440       -1.29522970962219       -4.96590658622037
O           -1.84153443174873       -1.28378627496346       -5.76881043346988
H           -1.89622361277973       -0.48016563549278       -5.22977611792481
H           -1.63159438922795       -0.96905457204296       -6.66564789561218
O            1.43734743316397        3.59953298473408       -6.77957425276580
H            2.25598470188300        3.52288734475303       -6.26493000328640
H            1.06377297985774        4.47520857098424       -6.55762082955417
O            1.52252419689471       -0.33615533235100       -9.59738427844639
H            2.17981223128234       -0.84227143927211       -9.08586172003913
H            1.38641655185984       -0.86155247430098      -10.40149168394679
O            1.82183755703637        1.06343173743561        6.02541339915172
H            1.99423570311056        0.11771619085265        5.84957016440834
H            1.45789016581090        1.39349114390394        5.18596833975197
O           -1.52321425745115       -1.84891136623091        5.88694205511424
H           -0.87856132773199       -1.64800731674319        5.17975695257917
H           -2.26324804883159       -1.25348398406287        5.68644903965362
O            1.64720196846063        6.55897738466048        6.17092867839521
H            1.37379362001458        5.89281601531456        5.51310627707171
H            0.82265504466366        6.83930345210483        6.59686899717616
O            4.47232829781510       -1.42483804829132        7.55507511139342
H            5.34643666637439       -1.63688547182801        7.17543529854786
H            3.83471807750638       -1.58715244554363        6.83045370815380
O           -4.95708069401956        1.08525121157823        4.71213166132913
H           -4.12801737952411        0.64122653359240        4.46040647380064
H           -5.13079506728673        1.69376231999813        3.97057556509202
O            3.80921334741771        4.61455427644470        3.91018290864664
H            4.22083815703866        4.42724164981896        4.77424944004992
H            2.84637492066354        4.58991976105900        4.05702955543526
O            0.37215433622958       -6.45616777945677        4.51493938144354
H            0.73607735947100       -6.34439284243100        3.61446587953126
H           -0.39859987800827       -5.86115132619818        4.55676915004918
O           -2.04742303641898        4.87229012543628        3.64602291316266
H           -2.15199086201992        4.00475118964091        3.20446366477258
H           -2.48004735039912        4.75377656262161        4.51314041255073
O            6.92109622638516       -1.75065943398607        3.45587427059961
H            7.12528257554700       -0.82561143893760        3.22243736532957
H            5.98602377991256       -1.86892555553492        3.20584893496771
O           -7.19082154304908       -0.21883711179401        1.43384612984018
H           -6.30842561307962       -0.57908840707939        1.63256030423121
H           -7.00823142444281        0.54620558659359        0.85421922992808
O            4.55869467606465        6.46025294712234        1.85839706865666
H            4.30972590614506        5.80540285354107        2.53988614404401
H            4.86888958735009        7.20965177686287        2.39490851020516
O            1.67987732240522       -6.03202769790972        1.84494032455521
H            1.04362295828852       -6.22067192827060        1.14106513920322
H            1.87776107797508       -5.08707198959447        1.70522671568817
O           -7.48670163940995        4.04950151436669        3.78373728894443
H           -6.66327683368884        3.71211858221360        3.38032734182515
H           -8.14226002468866        3.83577023764248        3.09703030110390
O            7.38897632510614        1.15063970469543        3.08602506178057
H            7.31078192526220        1.18984658073051        4.05864395561345
H            6.68438444227060        1.74670495209862        2.76818845757105
O           -2.66335193371722       -6.90737282195649       -1.15742034885582
H           -1.90989228776357       -6.40287118342864       -0.79709873812548
H           -2.90175372376461       -6.43610012448325       -1.97671750470153
O            0.63348894245725        8.30705357824832        0.58751557491825
H            1.19868230506501        7.51348309336543        0.50860691629707
H           -0.05533714118585        8.05164234352409        1.22600031423498
O            4.01227588768500       -4.70638564042145       -0.86704315655662
H            4.37421178311434       -4.76520000848509        0.03471988738916
H            4.13957122389084       -3.76920138610114       -1.08412234893496
O           -6.53743158179336        2.15610757085585       -0.20604591373716
H           -5.64106908444453        1.78885653684889       -0.33885130824336
H           -6.81742922911983        2.42568380984512       -1.09902222635643
O            4.64705673571568        4.78616640604317       -2.95386034099221
H            4.98246656992249        4.61544508482487       -2.05561686481394
H            4.02322656215289        5.52786607621890       -2.83101776831135
O            0.54463063295861       -7.58489474078462       -2.04842965127768
H            1.51883390835740       -7.52603094662709       -2.04973758943626
H            0.25078782715583       -6.86015467741500       -1.46263054002468
O           -2.86321982698511        8.11701242350995       -2.25180651208906
H           -1.90121416428109        8.24592808050719       -2.14190206580744
H           -3.21518815932823        8.08431062058819       -1.34231337621914
O            8.74475189330143       -1.44007912424153       -4.44756265221126
H            8.84680679993175       -1.32551089597928       -3.48400311287239
H            7.79761725155169       -1.28422667798500       -4.62496444724024
O           -3.30042152600994       -5.25761882933751       -3.54201054892497
H           -2.57492334197075       -4.81914940326850       -4.02245647096361
H           -3.62961796450972       -4.57449908313669       -2.93760299655941
O            2.83474385333097        6.72447264716550       -5.28149148355271
H            1.90788047023401        6.54677139061417       -5.53064048975272
H            2.82160692732154        6.83818638905161       -4.31463017649744
O            3.23891553195439       -6.50623647154286       -4.76584471942178
H            3.37935581041480       -6.98492461876933       -3.92913513539570
H            2.89035501344515       -5.65233646219880       -4.44624949605872
O           -5.46305257505077        3.97971484936403       -4.77565100295053
H           -4.81926269745269        4.50941428387977       -4.26958149125884
H           -4.98616820173235        3.72404238924979       -5.57916588694911
O            3.56451167357039        0.61905835255161       -4.38972280229805
H            3.67095942577256        1.48407675300811       -4.82698555679422
H            3.30604051506000        0.88296356273813       -3.49049736569793
O           -1.11517430637700       -3.82417833013238       -4.76620820669908
H           -0.67201388728159       -3.57265683689418       -3.93560842884924
H           -1.36237454307669       -2.97277070289251       -5.16721434096997
O            0.09250600534211        6.27688766087404       -6.26927209689622
H            0.33166760702670        6.65166207619954       -7.13838794666224
H           -0.36930740560422        6.99430393380002       -5.79332957973100
O            3.49426990985426       -1.90107997276789       -8.18945955411640
H            4.44738892753530       -1.75052267515523       -8.28763768516602
H            3.36290586247328       -2.01692780710033       -7.23163873658110
O           -1.15646974576464       -0.19505684313349       -8.36057712812053
H           -0.27441101221648       -0.25918775728915       -8.77387315433427
H           -1.19417642813215        0.71064583034550       -7.99817120611997
O            1.59119967384922        2.62722543990348       -9.54562455585135
H            1.57142659805566        1.65233146238093       -9.54494700654408
H            1.56030736552130        2.89102415328330       -8.60548436906012
O            4.30933461728031        1.49012327692020        7.32051753410789
H            4.40613775669585        0.55688178119329        7.58678640942333
H            3.42697690477055        1.48908689145736        6.90917092701996
O            0.77726158855293       -3.00109198685043        7.39139819746753
H           -0.07959872441510       -2.69435472278335        7.04215140621819
H            1.41305154553249       -2.64630086007466        6.74254387649065
O            4.52122038357659        6.93246636935969        6.16492942621697
H            3.54816869111048        6.86233357832272        6.19316230189357
H            4.82235595365433        6.01434505991259        6.30314988103000
O            2.77027337930170       -2.83419749637989        9.53460605871475
H            2.01432035246689       -2.94851522646274        8.93458686110961
H            3.41841244708833       -2.35159058894411        8.98498064461986
O           -6.41843774922701        1.38330091196471        7.13885023174085
H           -5.92876636512850        1.24407038564061        6.30506226213433
H           -6.45902113671829        0.50753515551191        7.55395130701153
O            5.25288845027147        4.08263527881174        6.43493313823411
H            6.20372471542765        3.91086088924315        6.35183340758465
H            4.88694970731285        3.25175118093444        6.78830236085762
O            2.60571972573228       -6.05385191651278        6.28157126333635
H            2.35494363086290       -5.31629180191555        6.86098968754541
H            1.80301340426605       -6.23090147434230        5.74939447785570
O           -3.42428060109753        4.44264638887422        6.14493987482032
H           -3.11473612758602        3.70649024752552        6.69584389630730
H           -4.39410013428732        4.43672174761008        6.24192946391542
O            7.08276158534387       -1.90592662093856        6.30013673224563
H            7.60483056223586       -2.68254266476317        6.54944755294412
H            7.04438060815789       -1.93153434220066        5.32558426930960
O           -9.76079839772472        0.41517324736013        2.49405171572582
H           -8.90549310938313        0.11667818916093        2.12947733616592
H           -9.76874174963980        0.09161154951162        3.40885294526840
O            5.33856404079945        8.45076381231374        3.82948023400983
H            5.09622955607581        7.93759621759485        4.62410991889294
H            5.11007629918938        9.36873956838518        4.04352308816991
O            3.96354839563028       -6.49717168664381        3.66060371219836
H            3.60304408481066       -6.39852580062697        4.56217050782209
H            3.18128697516321       -6.44993328158400        3.07390008258544
O           -6.32422146602118        4.24801203648459        6.45705533059491
H           -6.75945821406596        4.25649745795230        5.58395575446735
H           -6.41887726915213        3.32504299180895        6.76235899833334
O            6.93122550883892        1.06939877367816        6.00110395743889
H            7.06007379155683        0.11272755221355        6.15044674426335
H            6.07937878980772        1.26012362327477        6.42714505746109
O           -3.02975685167674       -9.65509485926130       -0.42215268589811
H           -2.92062772940729       -8.72520289861354       -0.69991740128850
H           -3.72513219574633       -9.63406628555550        0.25470248498707
O           -1.45837436144188        7.43293194483468        2.32288962805957
H           -1.62246977903674        6.58310089594445        2.77280909429099
H           -2.24096126621067        7.58795979442776        1.75864093439637
O            5.14079687672158       -4.61658520669908        1.78409256914174
H            4.89338853038818       -3.75411043531826        2.16765799822526
H            4.83883464056885       -5.27509889252643        2.43582166975413
O           -8.95080075787990        3.06779271273007        1.44400048565110
H           -8.20477140290492        2.81818152312795        0.86310938405718
H           -9.30588707151222        2.21931340095454        1.77153099820151
O            5.52734589703473        4.57821294495132       -0.18054962388818
H            5.49714164417331        3.84219628256441        0.45526087952671
H            5.27550259165694        5.33244824234309        0.38594365166874
O           -0.24923602249324      -10.33338198745011       -1.17695169491157
H           -1.18274406259809      -10.19131145762472       -0.92742664815447
H            0.04795074082132       -9.45697789960110       -1.49210948940039
O           -3.88422794789171        7.92956193423295        0.50693131308988
H           -4.15869498777608        7.14808951397179        1.02200540060747
H           -4.52156719475505        8.61895966500420        0.75117176094159
O            9.03951202896572       -1.15847334349545       -1.54297480421830
H            9.03239764734902       -1.94652760729937       -0.97615651336250
H            8.79850196675809       -0.42260106760999       -0.95027366981205
O           -3.82102618215082       -7.86344516531114       -4.72602715169375
H           -3.75265508624503       -6.97213145165256       -4.33400012862200
H           -2.90502785320894       -8.18803811253663       -4.67437248739177
O            2.80131094506819        7.12869436070646       -2.40157384233372
H            2.59550665249756        6.67850479029415       -1.56053228029369
H            3.42985436749097        7.82727872254916       -2.15750265376513
O            3.46985756740840       -7.35086140676095       -1.94685811960466
H            3.67774524957440       -6.47754372804686       -1.56175238672082
H            3.95695469739316       -7.99009168077556       -1.40629180980992
O           -7.33486774503722        2.89701569201503       -2.86714415202560
H           -6.68689872847668        3.26889025115610       -3.49322342029728
H           -8.10821990500434        2.67358293690699       -3.40844983080058
O            3.96723043499206        3.36493407818456       -5.36696071545013
H            4.79022598024177        3.44169469497589       -5.87538896464164
H            4.15205122081188        3.83138026038199       -4.53154547618697
O           -0.95981440504082       -8.33337163435454       -4.50479975571581
H           -0.44796634310403       -8.12047469746645       -3.70131185341181
H           -0.75052279235866       -7.62225071251576       -5.14283834871508
O           -1.31256885625289        8.27051577225201       -4.71206887373872
H           -0.76028734595784        8.37159059232417       -3.91421940645271
H           -2.22053164265865        8.32669409195337       -4.37052186116879
O           10.60674777419218       -2.63078386148808       -6.29180804401594
H           10.06702885473957       -3.34668335412962       -6.66726431660416
H           10.01767666976356       -2.18704512730898       -5.65303251278876
O           -6.33110975753924       -8.84882727339418       -5.73254900247954
H           -5.45306777908318       -8.54551590939464       -5.43455226865811
H           -6.93399918831116       -8.59747062468162       -5.01504058556107
O            3.92904576970248        7.29331053204181       -7.87963863478539
H            4.77435841671203        6.82237701014881       -7.94608146009724
H            3.61292055760596        7.12051798590541       -6.97209153959313
O            2.11065761768511       -6.23177785634155       -7.43995493803855
H            2.58631138936230       -6.36261820619637       -6.59930272125171
H            1.17867623712274       -6.21190130984765       -7.16405634355290
O           -2.42901335976748        4.71694312294777       -5.98724420822046
H           -2.76146475828768        4.98088021482877       -5.10900665283036
H           -1.61104237050902        5.23798768289752       -6.10471429916330
O            5.90339474552625       -1.04645694162785       -5.01765653306194
H            5.39597277664584       -1.84570118499656       -5.24454693497829
H            5.21280819087867       -0.40609026189491       -4.76705631541180
O           -0.62560349539877       -6.09911884903746       -6.43114469877901
H           -0.75646033792512       -5.31164600282211       -5.87008364369545
H           -1.35111042974864       -6.07444369254569       -7.07446370796205
O            1.11417150398137        7.24856392453043       -8.80565884457229
H            1.06919721611057        6.57307258926851       -9.50880473740476
H            2.06225358101926        7.31640765262316       -8.57988721639760
O            2.60036092847461       -4.34715158276367       -9.63704199869575
H            2.43803091366220       -5.00701292654075       -8.93568033303173
H            2.88729894698920       -3.54315227913836       -9.15902433242170
O           -1.17985574886442        2.38771423824476       -7.15317519720496
H           -0.26650787528789        2.70936424420989       -7.03052886991059
H           -1.71893880453286        3.10564679009310       -6.77680709193841
O            0.97596981573358        5.13353564261690      -10.82059373720584
H            0.22294310143959        4.91905811569353      -11.39175055411332
H            1.21950599585444        4.28800114779720      -10.40040835915478
