334
 energy: -45.974003674746 gnorm: 0.009752477461 xtb: 6.6.1 (8d0f1dd)
C           -1.66462999982072        5.17382999963090       -0.75038999941813
C           -0.67992999997683        4.87518000011549       -1.71752000049765
C           -0.00167000011233        3.64483999979033       -1.70736000018374
C           -0.29196999994088        2.59770999994829       -0.70919999980380
C           -1.32493000005264        2.93486999994974        0.27955999989065
C           -1.96269999953914        4.19391999995285        0.23283999989008
C           -1.69107000000884        1.94803999976987        1.43478000005417
O           -1.09336999998448        0.74682000007433        1.44528000006067
O           -2.52034000002182        2.32435999998886        2.34451999999456
O            0.37859999997959        1.46297999996917       -0.75352000007612
H           -2.18804999971652        6.13957999997891       -0.76415999994804
H           -0.43784000004288        5.62056000008575       -2.49319999997530
H            0.76695000001088        3.43104000001251       -2.46034999992228
H           -2.71886999999535        4.39049999994842        1.00929999990204
Fe           0.10740000010178       -0.14463999998923        0.39394999985328
C            5.46322999985153       -1.18306000004828       -0.89025999973603
C            4.68465000001419       -1.75773000025896       -1.93548000020708
C            3.26074999988730       -1.65389999993919       -1.88900000001845
C            2.56889999991905       -0.99364000002237       -0.82041000010793
C            3.39660999994536       -0.40357000000739        0.27090000017521
C            4.82436999993692       -0.52637000016769        0.17254999977414
C            2.75570999991833        0.32688999999166        1.41085000011286
O            1.36546999991681        0.41442000000395        1.39851000008374
O            3.42851000005898        0.87710000007079        2.36999000000757
O            1.22910000005861       -0.92155000004549       -0.83384000001134
H            6.56214999998621       -1.25305999997335       -0.91958999981712
H            5.17369999996319       -2.27759999992688       -2.77187999988222
H            2.65673000002870       -2.08778000002544       -2.69766999990853
H            5.41994999996606       -0.07162999997588        0.97993999994275
C           -4.13917999980367       -3.61616999989913       -0.88730999936667
C           -4.20712999998765       -2.56012999981585       -1.83329999971490
C           -3.25085000007704       -1.50038000002594       -1.78199999995680
C           -2.21269999996451       -1.44424999989718       -0.78619999988246
C           -2.15574999993343       -2.55994999993577        0.19870999994902
C           -3.13421000034969       -3.60757000009955        0.09629999983125
C           -1.06716000005985       -2.62013999984430        1.22136000067208
O           -0.08656000002191       -1.62708000018929        1.13180999998753
O           -0.94895000005979       -3.56165999984840        2.09916999997542
O           -1.35407999999106       -0.42016999993594       -0.77309000005173
H           -4.87183999996199       -4.43782999999978       -0.92444000004095
H           -4.99545999994353       -2.55325999990418       -2.60052000011299
H           -3.29990999997591       -0.68513999997807       -2.51589000005992
H           -3.06879999993293       -4.42726999998497        0.82836999997245
O            0.92603842240642        1.90699565272837        3.43283497623508
H            1.76851419248205        1.59491889942630        3.03868166228233
H            0.26627276869577        1.58551355131478        2.78769361242179
O            0.26883233882618       -1.35748464708942        3.65035905263514
H           -0.11153519386174       -2.10330594691463        3.13957356334608
H            0.60250780222933       -0.77075238971394        2.94078091433215
O            0.83697868275602        4.59392495115037        4.23320343004148
H            0.90234689611648        3.65839411053697        3.97092513987640
H           -0.09373968935138        4.79842746294076        4.02970300275629
O            2.50625670260491       -1.83709288765745        5.32774291758598
H            3.15954230664875       -1.98034764690324        4.62019824498332
H            1.68749984894264       -1.72253981394740        4.80693228195989
O           -2.46637771139263       -0.12577203907953        3.74041267648341
H           -2.41938363476013        0.71390314285567        3.23649736642809
H           -1.59713231693250       -0.52162443417836        3.56114289621489
O            5.27957794328542        2.86406257067751        2.06813817507172
H            4.86668960864621        3.50189813550810        2.68099822179586
H            4.63485570735505        2.13446805002403        2.07287788081280
O           -1.80668161361154       -4.53691131120448        4.60227127219842
H           -1.79711534812323       -3.71333789408617        5.12567134525644
H           -1.58798037450106       -4.23385125144373        3.69843481347955
O           -4.53366806536465        5.69765844673539        2.24433020016264
H           -4.94237744381251        4.81671458792290        2.21695842178939
H           -3.72626703229305        5.53749114906521        2.76695510851366
O            4.02799427572735       -2.02085834580679        2.87211131724731
H            3.30365593997021       -2.41696179013120        2.34920684897270
H            3.90131876997652       -1.06173083618917        2.73412755913303
O           -4.49758180146681       -1.07894366420792        1.84775144302523
H           -4.06002112292680       -1.75230852750914        1.30595979624720
H           -3.82299578563848       -0.80893338302913        2.49626346507872
O            2.27893822683990        5.93812996274004        0.13360303639035
H            2.00358015929907        5.02218560899573        0.27430588044040
H            3.02892394078715        6.08780889281542        0.73806011323278
O            1.89134073657372       -3.22195853645885        1.28878926169868
H            1.77973814371745       -2.50549381076057        0.63209227131281
H            0.97679740845174       -3.30073713195299        1.63602841825692
O           -5.26737409625030        2.88042940236550        2.35887859247391
H           -4.31804460955049        2.66486004244229        2.27580039297828
H           -5.66365375375600        2.62671012880196        1.50584724623775
O            8.35559966065240        0.77501370835948        0.30717760532077
H            8.07704016156268        0.84345712043162        1.23825275991574
H            7.88991002068532        1.49751788264459       -0.14213028187968
O           -0.32988564222987       -5.21770769171583       -0.37506347370090
H           -0.56165359861167       -4.77374791239485        0.46260783682366
H           -0.21749578113823       -4.47265856942758       -0.99750676226830
O           -0.02679745313252        8.25265345730664       -2.35030010709996
H            0.83169641501565        7.83963448392368       -2.56116898017426
H            0.04229628456584        8.37097293090774       -1.38655072041205
O            2.19876244403234       -4.13426184338134       -3.45757620283131
H            2.72210188738749       -4.37413620256066       -2.66807194086582
H            1.37567922992678       -3.75638281361356       -3.09958845852086
O           -3.92310989699517        1.00907995160861       -0.23840668616481
H           -4.14102637261503        0.37272233022580        0.47190185435757
H           -3.01606001453590        0.74771564645913       -0.46831646910587
O            2.96568378467267        1.77815935954543       -1.85183438434930
H            3.48445278205437        1.22223521711747       -1.25047103886392
H            2.05699083027892        1.67995407854276       -1.51477881712279
O           -0.13005116603394       -2.88556589981732       -2.28402602564254
H            0.35589770704524       -2.18373768155797       -1.81565529389442
H           -1.04843664906357       -2.60776491403318       -2.14989686621904
O           -3.53365486678851        4.97897442868617       -3.20407295549985
H           -3.18181419442363        4.49208217291902       -2.44544610046048
H           -3.40445598613700        5.91487959719188       -2.96660678417629
O            3.48537971414690       -2.15910729300946       -5.30671234375526
H            3.02512558523926       -2.77524852217587       -4.70996227753730
H            3.43174770620160       -1.27453880521766       -4.89693051487399
O           -1.62279428875590       -1.27069406561204       -6.39645561894479
H           -1.38228485440872       -0.33411254496775       -6.29082280348816
H           -1.75587571335878       -1.36079397882149       -7.35598943766771
O            1.50100119947163        3.10256453159078       -6.62700253176135
H            2.35654523326216        3.16421036659628       -6.17488630204166
H            1.05632864863680        3.95691370725897       -6.45934137546540
O            1.58032121632076       -0.77654944905114       -9.52249698516713
H            2.37378045886043       -0.96687607006346       -8.98880720859257
H            1.39973128780809       -1.63432653200415       -9.94353931839775
O            1.81405736736673        1.04430354039674        6.01587097864038
H            1.98116342010762        0.09778412521732        5.83958206882649
H            1.45510300449460        1.37887186664450        5.17599836888579
O           -1.56635061412239       -1.83531083251318        5.86928598896465
H           -0.91350986954054       -1.63815870022956        5.16849705574693
H           -2.30712599091335       -1.24594755351753        5.65374845088918
O            1.70295841542366        6.51495768362397        6.19993211513998
H            1.41049547531103        5.87253936864029        5.52729155503142
H            0.89483111292066        6.75604768695043        6.67874902780508
O            4.47167855079736       -1.45782484723333        7.53929834822727
H            5.34322220704790       -1.66616428228999        7.15164351764164
H            3.82869645290867       -1.61881870193093        6.81926136784563
O           -4.96955411787823        1.03371309313964        4.71841631134272
H           -4.13976402693577        0.59664901014316        4.45729030141712
H           -5.15370205697593        1.64071526369714        3.97816246484774
O            3.81708480078463        4.61509907374087        3.89370350810852
H            4.23308172530646        4.41193185860902        4.75180588607748
H            2.85492451365266        4.59294759238819        4.04505821917005
O            0.34244636061357       -6.51880363327932        4.43799179053515
H            0.68797668533732       -6.39741252090258        3.53168195388347
H           -0.40652930495013       -5.90024783004723        4.51132376534806
O           -2.04269224418124        4.87432562784377        3.64145869577232
H           -2.15362677573019        4.00782405851864        3.19933436698193
H           -2.47523201330727        4.75919387550566        4.50924882125261
O            6.87451915070083       -1.80535633241325        3.42118302759093
H            7.07829917717757       -0.88131683297354        3.18314990984266
H            5.93953197975531       -1.92537854109947        3.17216209598482
O           -7.20884104969014       -0.19954450022743        1.43392692654298
H           -6.32576338861417       -0.56351985729958        1.62201296454509
H           -7.02837076069163        0.56026870224154        0.84670468594216
O            4.55182197180123        6.50415879626630        1.87225824505526
H            4.30492085974677        5.83723785795960        2.54281184992674
H            4.88001620598991        7.23728920897821        2.42031587231249
O            1.60046797512419       -6.10132866515876        1.74699014248645
H            1.03282892245569       -6.35818600662949        1.00733799242930
H            1.77122385590050       -5.15453970737779        1.58768365023447
O           -7.47951953960126        4.02699393259076        3.80011947697479
H           -6.66494566007681        3.66581051219420        3.39937408728535
H           -8.13521649738134        3.84804073205442        3.10386266972389
O            7.35483719979341        1.09427749555661        3.04170566511860
H            7.27638204101844        1.14168229808673        4.01389639381631
H            6.66757644065071        1.70714079033620        2.71880652378254
O           -2.65880431442294       -6.78426660053742       -1.31616054559729
H           -1.90563873124684       -6.28322712084298       -0.95060299827749
H           -2.90108464208088       -6.30116782276091       -2.12730099077634
O            0.52400152452410        8.27274968633113        0.43763595730898
H            1.12587835292875        7.50335203370277        0.40469765390728
H           -0.15629212055296        8.02147509073218        1.08710309557380
O            3.94674557633412       -4.73946050947880       -0.98974328178188
H            4.30513958195927       -4.81255889914711       -0.08796252748426
H            4.07457311636580       -3.79810044688049       -1.18760880093335
O           -6.54193348181886        2.16157185140457       -0.21886700635239
H           -5.64464106685400        1.79988509115022       -0.36023528850618
H           -6.86172982373593        2.36012661190710       -1.11722165059845
O            4.69099122027775        4.80464683843591       -2.96313502239849
H            5.01887304465514        4.65016138642762       -2.05916936455587
H            4.01420825013664        5.49997581538328       -2.84973669606734
O            0.48731364224427       -7.46688673271639       -2.24088964570870
H            1.46167874609850       -7.42355777147000       -2.27934991538753
H            0.22492652806463       -6.74068370741670       -1.64185325165105
O           -3.00813379287123        7.75899778738988       -2.36695725966088
H           -2.05415850278525        7.94839831923394       -2.27594468545620
H           -3.35834469595352        7.80354471665318       -1.45721548919071
O            8.93289141950545       -1.58735324704921       -4.35808898891877
H            9.00472013972617       -1.50997410719689       -3.38828274652092
H            8.00078341014624       -1.38059972167943       -4.56027639810695
O           -3.30879702158759       -5.10157252271071       -3.67499750948997
H           -2.59533999258504       -4.64354553309390       -4.15508719746511
H           -3.62918648291262       -4.44160864591316       -3.04084533648209
O            2.69783219403336        6.52286828502823       -5.34552581094094
H            1.79571435265628        6.22038804178561       -5.56315020038732
H            2.69009457596968        6.67096800976556       -4.38254072532395
O            3.11148712616633       -6.34102621533125       -5.04728252899019
H            3.27971851289169       -6.86387959047252       -4.24293521272160
H            2.77463211851906       -5.50819411503833       -4.66612824872155
O           -5.46273537537115        3.55798905175041       -4.80986892940814
H           -4.84446249128717        4.07007177412805       -4.25603009715886
H           -4.91198259990735        3.21328603446982       -5.52784484985891
O            3.78326980820889        0.61694110181997       -4.33530597368103
H            3.89683935615585        1.47551895604938       -4.78167481400309
H            3.46705637717724        0.88899292847657       -3.45724482101090
O           -1.16453431058640       -3.64139997243888       -4.92048844198269
H           -0.72708506117223       -3.36302522768775       -4.09569918115413
H           -1.30648977198368       -2.81715393629299       -5.41768684229856
O           -0.00090834942210        5.70725102102487       -6.23308018034643
H            0.23475313524856        6.05624559014712       -7.11250313391531
H           -0.51075625963710        6.42031903655596       -5.80090234770786
O            3.94020973557293       -1.65498325973312       -8.06525280281011
H            4.85957809121174       -1.35019153007231       -8.08520959173596
H            3.76177235680003       -1.84364479313989       -7.12637625058988
O           -1.23095976487586       -0.04116561534188       -8.99648829694792
H           -0.31023453707293       -0.28676158238478       -9.21037881505615
H           -1.15078912666300        0.57278016382288       -8.24056164644033
O            1.52830000079211        2.18917070948385       -9.43052876993551
H            1.55773916616124        1.21581385855427       -9.45722992950252
H            1.53687662679040        2.43079871759592       -8.48361200616188
O            4.30448496548783        1.46037939449905        7.31037367657449
H            4.40298917599342        0.52535519917955        7.56962386159344
H            3.42441394329967        1.46075021164489        6.89502420437510
O            0.70483468419460       -2.82948223016337        7.47776656469289
H           -0.14412539724080       -2.55821323750940        7.08475732168383
H            1.35488349545253       -2.55712143636664        6.80584071434154
O            4.57865112922907        6.88337013390228        6.18856164143794
H            3.60530313783127        6.81580317478252        6.21228652529696
H            4.87576784044502        5.96027092490182        6.29874166939404
O            2.73287961207575       -2.70110628636651        9.59022268180239
H            1.96559931435410       -2.79696806067420        9.00205470281564
H            3.39558819252847       -2.26916664392857        9.01626179182266
O           -6.38884238912477        1.37552864638928        7.16388765732995
H           -5.91441507394599        1.22274780034897        6.32377379473515
H           -6.39800929928758        0.51249686497187        7.60645391716642
O            5.28598970078248        4.02710935831665        6.39277809633357
H            6.22741671819128        3.82687680853427        6.27581346100669
H            4.90792575204452        3.20583071431256        6.75484368707133
O            2.65923241870025       -6.62796818047289        6.12097191452923
H            2.50826762969575       -5.97808845837494        6.82511668044284
H            1.82716817330350       -6.63871041825797        5.60913322322231
O           -3.40043246683869        4.44902927130142        6.14987616946697
H           -3.08603586381075        3.71819406987255        6.70542612658205
H           -4.36981094608825        4.44053643352832        6.25058928641244
O            7.07171987087339       -1.94164764453257        6.26317316063401
H            7.61849012220039       -2.70237144100634        6.50836562188354
H            7.02234194031621       -1.97153193107391        5.28926164834927
O           -9.75370768288412        0.49187445397840        2.52176888893920
H           -8.90909919465961        0.17406515383180        2.14888797748771
H           -9.74801665855261        0.19156982716148        3.44435946741256
O            5.39010996871567        8.44309589758738        3.87499127109520
H            5.15004961516580        7.91378425359068        4.65971356588992
H            5.17284018740555        9.35834697711988        4.11311156643636
O            3.93981382262512       -6.64819216058687        3.44516715255410
H            3.60192709083168       -6.68427361621154        4.35834233933353
H            3.13863224479694       -6.56302154025062        2.88968826619557
O           -6.30231587217204        4.23639223495992        6.46680314701471
H           -6.74164615957293        4.23823735776348        5.59579220683065
H           -6.39046357593931        3.31445117020245        6.77714539601694
O            6.91321598370743        1.03260510484029        5.95996762504650
H            7.04380969919033        0.07572918613926        6.10557033302279
H            6.06334625538751        1.22092574058695        6.39050297280261
O           -3.10320951020625       -9.51613249627654       -0.58279882617940
H           -2.97183204383175       -8.58923860698512       -0.86088624198946
H           -3.78171085611239       -9.47559992225229        0.10963683890196
O           -1.53729224697107        7.40743256079869        2.22042952982363
H           -1.67346293424011        6.56801927464576        2.69820355634885
H           -2.32895970499635        7.52393232937433        1.65966635874466
O            5.07819036863355       -4.65865933062366        1.66163940170363
H            4.82831727754291       -3.81202206413090        2.07701827540265
H            4.78304450818922       -5.34437681891349        2.28781381695875
O           -8.93738834199115        3.12313137556263        1.43130860470975
H           -8.20219405887019        2.85980138316460        0.84295574001635
H           -9.30235416273330        2.28096407629055        1.76475254835134
O            5.53828846997173        4.63653665212823       -0.17524821252764
H            5.50571682127990        3.89002876767907        0.44832646704949
H            5.27732564512712        5.38210199785624        0.39819841842628
O           -0.31925791952410      -10.19969328869274       -1.32838835113668
H           -1.25241622995719      -10.05414459725787       -1.08042446728937
H           -0.02010996233590       -9.32752006405399       -1.65315427618432
O           -4.00168155168886        7.79697411449000        0.40690621396826
H           -4.25161976207641        7.04157627982488        0.97166455208507
H           -4.64144032181728        8.49126827297323        0.62978611837872
O            9.11451376457778       -1.40818178863449       -1.43693508548450
H            8.98011557691082       -2.18870850187918       -0.87604777072751
H            8.88572331455439       -0.64997464634656       -0.86788454721417
O           -3.92247093474105       -7.66900728121959       -4.88752643895595
H           -3.82938894627750       -6.78725348761678       -4.47927209456613
H           -3.01779303474469       -8.02249997578127       -4.83188451858464
O            2.68598463346561        7.01877667785662       -2.48076495025577
H            2.51629462188040        6.61204627536810       -1.61036291641009
H            3.26861714159576        7.77132770552883       -2.28852577865940
O            3.42451101294465       -7.29891974237601       -2.26522932685104
H            3.63017806230856       -6.45486131213196       -1.81856421440089
H            3.94452266510930       -7.96857911186987       -1.79693385212211
O           -7.44276182403757        2.69630064890783       -2.89996859830578
H           -6.76903760153391        2.99798506262464       -3.53684760094753
H           -8.20528017620919        2.44114422041504       -3.44143386644265
O            4.10988067467732        3.33336988271264       -5.37131881301707
H            4.86679865831204        3.56079632944808       -5.93110070135469
H            4.26991111546223        3.81008204645584       -4.53628255295402
O           -1.07102445133074       -8.20150197534165       -4.66642226836053
H           -0.54308957341146       -7.99425213365934       -3.87200153874179
H           -0.87412798372417       -7.48535705733245       -5.30286469926628
O           -1.47568528168732        7.75921453213647       -4.82998851651358
H           -0.92703940649660        7.96427026755208       -4.04977667137172
H           -2.38450705506124        7.78573137121246       -4.48624968542953
O           10.78597028647529       -2.73260804084382       -6.23977537317512
H           10.21517459354555       -3.37213092568779       -6.69797636975886
H           10.20224002351721       -2.30807474256687       -5.58338153845479
O           -6.46195062041576       -8.63678055532973       -5.84311780516516
H           -5.57742443347798       -8.33600095110172       -5.56385426594496
H           -7.04324480026307       -8.39806058170208       -5.10806222735473
O            3.85501649111711        7.05227487350292       -7.93378652598760
H            4.77437256981590        6.75300817034194       -7.88281536112334
H            3.49953760796072        6.91323024198516       -7.03261309346076
O            1.91357507220335       -5.85162471592694       -7.67010892104560
H            2.41341947108671       -6.04565943283935       -6.85607268100609
H            0.98876299828406       -5.90807392309039       -7.37637910930801
O           -2.29390725048247        3.89923203022279       -5.62505326835800
H           -2.67105226652027        4.25961169525156       -4.80129915077051
H           -1.55098020140336        4.49629013500556       -5.83862224664760
O            6.12490082033227       -1.05633246445087       -4.97605349524115
H            5.61768896490347       -1.86527685107494       -5.16572013982825
H            5.43711175670127       -0.41304025336758       -4.72550518909729
O           -0.79615515069625       -5.95016177818773       -6.58331161980609
H           -0.89057836818982       -5.15754085118895       -6.02196272483338
H           -1.58269353031171       -5.95597965164461       -7.15102975623171
O            0.99618753188090        6.66995083599379       -8.77184734120180
H            0.96331218884612        5.99017796184180       -9.47038163493157
H            1.94622536618225        6.83690934524093       -8.61177090256450
O            2.24625188026347       -3.60957215068718       -9.52806566352272
H            2.12009893351066       -4.38465754984364       -8.94961255016635
H            2.86926441590701       -3.03867198431594       -9.03600020586837
O           -0.93323612439645        1.53597363630350       -6.53522275876834
H           -0.05016304970803        1.94764027392205       -6.53916901900695
H           -1.50169946786132        2.25058654888113       -6.19975440081886
O            0.73023234657897        4.58041688901065      -10.78720578960612
H           -0.12609867867767        4.34869980829684      -11.18188630710388
H            1.03694622858080        3.75750570890975      -10.36063845315341
