19
Coordinates from ORCA-job /home/hharb/C-STEEL/Fe_orca/all_calcs/orca_wB97X-D4_3_6 E -1721.212281835131
  Fe         -0.78349324440288      0.71383020667124      0.03191933914518
  O          -1.30954597385995      2.65211058444225     -0.29657714997230
  H          -1.42054946409547      3.08048978040837     -1.16356244408180
  O           1.17968367712210      1.24993769293636      0.04387610444811
  H           1.94032194621778      0.65675260342632      0.17427955482061
  O          -0.88482356381583      1.02324101208926      2.04097172812707
  H          -1.67152184061782      0.90967598644129      2.60274243131845
  O          -0.25773713964483     -1.22540017213991      0.35946840630611
  H          -0.06855904840078     -1.89547614579632     -0.32070332857197
  O          -2.74745338084093      0.17576370940759      0.02185364960607
  H          -3.50826074045548      0.76798363355741     -0.11169459074056
  O          -0.68723124468976      0.40268015344699     -1.97742105292751
  H           0.09615386179930      0.51868437112106     -2.54336263660694
  H          -1.41490770013201      0.10465340566456     -2.55105860453383
  H           1.53369362770807      2.14859519346539     -0.07672395962083
  H          -1.50154730020505      3.32271972275342      0.38228455376620
  H          -3.10083058509064     -0.72292071049875      0.14382730623556
  H          -0.15931417509256      1.31868494200758      2.61870513350693
  H          -0.14559528150324     -1.65592619940415      1.22522096977545
