19
Coordinates from ORCA-job /home/hharb/C-STEEL/Fe_orca/all_calcs/orca_wB97M-D3BJ_3_6 E -1721.286871077951
  Fe         -0.78342593432750      0.71388603342583      0.03195238722753
  O          -1.30882173722538      2.65234598482137     -0.29703226986639
  H          -1.41931293711289      3.08123181458554     -1.16417772013223
  O           1.18012631268526      1.24976509017349      0.04366957883187
  H           1.94126545352049      0.65683554486666      0.17456115582836
  O          -0.88510670214311      1.02315354785855      2.04109028572013
  H          -1.67220835037669      0.90955435350988      2.60284686625636
  O          -0.25865052844456     -1.22556909591299      0.35987380395879
  H          -0.06872061161482     -1.89608247261870     -0.32010370934433
  O          -2.74780903313805      0.17590880043096      0.02209133266423
  H          -3.50918424085267      0.76788848548967     -0.11148710357469
  O          -0.68695206882507      0.40253239057512     -1.97744320704995
  H           0.09664365735976      0.51863015375931     -2.54361716644804
  H          -1.41456948905361      0.10500108567340     -2.55192576016101
  H           1.53455850686222      2.14865820900529     -0.07641054840593
  H          -1.50106386166006      3.32354031183488      0.38162644516671
  H          -3.10148780497615     -0.72314410902560      0.14290883881282
  H          -0.15999845494595      1.31855432851770      2.61986470569910
  H          -0.14679974573119     -1.65661068697037      1.22575749481666
