19
Coordinates from ORCA-job /home/hharb/C-STEEL/Fe_orca/all_calcs/orca_wB97X-D3_3_6 E -1721.068602224381
  Fe         -0.78351312970223      0.71378092994415      0.03180959355356
  O          -1.30960595760990      2.64859767745632     -0.29561889335099
  H          -1.42246899864828      3.07665043117924     -1.16105985934084
  O           1.17646806160891      1.24964124104881      0.04532018213013
  H           1.93631687257159      0.65704387846218      0.17311133791893
  O          -0.88508489236133      1.02192331674051      2.03767688120883
  H          -1.67040657044640      0.90966876703887      2.59939295569801
  O          -0.25720565628731     -1.22171625769396      0.35834274137753
  H          -0.07095612961794     -1.89204243269935     -0.32052293111719
  O          -2.74438636586367      0.17612262127539      0.02078221012029
  H          -3.50441671264057      0.76766362126491     -0.11058903475295
  O          -0.68739604732483      0.40373953734548     -1.97442075038688
  H           0.09455029785105      0.51870742069857     -2.54032953586295
  H          -1.41418046555599      0.10712177321172     -2.54773368013337
  H           1.53080177268338      2.14669603904535     -0.07569648574327
  H          -1.49828113365396      3.31935999968287      0.38214954083287
  H          -3.09816513107761     -0.72085777678076      0.14369686147016
  H          -0.16033171179926      1.31566638187798      2.61504728531105
  H          -0.14325567212566     -1.65168739909832      1.22268699106710
