19
Coordinates from ORCA-job /home/hharb/C-STEEL/Fe_orca/all_calcs/orca_wB97X-D3BJ_3_6 E -1721.217980996657
  Fe         -0.78349864734905      0.71392292261949      0.03190371411572
  O          -1.30899859817998      2.64994901233142     -0.29633394138371
  H          -1.41943917130939      3.07745731008809     -1.16379267789942
  O           1.17741610560745      1.24943277414176      0.04366442085758
  H           1.93737359059928      0.65544378149202      0.17421480429494
  O          -0.88473423120437      1.02284705436718      2.03873422899820
  H          -1.67212416213883      0.90932017493527      2.59950956658363
  O          -0.25804201130989     -1.22310541051749      0.35909968370227
  H          -0.06847228790560     -1.89236522322574     -0.32173135401694
  O          -2.74517013782666      0.17607397827779      0.02221847199403
  H          -3.50544902977167      0.76893034574464     -0.11140632196384
  O          -0.68765505454208      0.40307239352534     -1.97526928957015
  H           0.09626897253958      0.51924856996967     -2.54038377039565
  H          -1.41597235866551      0.10481217667511     -2.54793530884986
  H           1.53037860150171      2.14844832613729     -0.07716543379523
  H          -1.50119344602708      3.31975793861724      0.38323680132700
  H          -3.09730137678715     -0.72304202133018      0.14445554715435
  H          -0.15871579243666      1.31853339865299      2.61567380415639
  H          -0.14618853479407     -1.65265773250191      1.22535246469067
