19
Coordinates from ORCA-job /home/hharb/C-STEEL/Fe_orca/all_calcs/orca_wB97M-D4_3_6 E -1721.279828896134
  Fe         -0.78346281824074      0.71382159286128      0.03190735504285
  O          -1.30900217952042      2.65401547195505     -0.29726416029966
  H          -1.41985657065071      3.08378470888205     -1.16399730733730
  O           1.18173848991477      1.25002276750806      0.04373303851381
  H           1.94347708613033      0.65763073515390      0.17408334072539
  O          -0.88515643156864      1.02340941954120      2.04265980172823
  H          -1.67177229372797      0.91009543020448      2.60527966279891
  O          -0.25824147483086     -1.22724661589355      0.36008890162925
  H          -0.06821141650169     -1.89846104419402     -0.31927450721057
  O          -2.74951646106547      0.17566143984106      0.02204527618019
  H          -3.51142124837789      0.76712097009303     -0.11135681200604
  O          -0.68701544227484      0.40235729449432     -1.97911157954478
  H           0.09618718967077      0.51816546619639     -2.54601437304865
  H          -1.41412627566524      0.10487064807236     -2.55437983889548
  H           1.53703861418740      2.14870460458926     -0.07592686533040
  H          -1.50140513057677      3.32578513520059      0.38088279602331
  H          -3.10421384017261     -0.72306118200149      0.14292535211851
  H          -0.16036501774745      1.31846368813623      2.62212106598476
  H          -0.14619234898194     -1.65906076064025      1.22564426292768
