19
Coordinates from ORCA-job /home/hharb/C-STEEL/Fe_orca/all_calcs/orca_B3LYP-D4_3_6 E -1720.894685380897
  Fe         -0.78380454415828      0.71350493445620      0.03201049391634
  O          -1.31355454805141      2.65959121377639     -0.29720239069554
  H          -1.42458691187449      3.08996982400987     -1.16592208186703
  O           1.18632963677071      1.25251069473720      0.04532871005842
  H           1.94920740322954      0.65828076075602      0.17605177093776
  O          -0.88549576380140      1.02453220324406      2.04904169071629
  H          -1.67276236159383      0.91070385370784      2.61408158455515
  O          -0.25458267757855     -1.23323813632103      0.36066576668718
  H          -0.06643382636934     -1.90596100439415     -0.32059824406817
  O          -2.75427168085086      0.17255810328897      0.01986329662328
  H          -3.51735313255591      0.76623770882209     -0.11203473464453
  O          -0.68585609775544      0.40205099475733     -1.98562967883127
  H           0.09922651704323      0.51629866009147     -2.55368985080378
  H          -1.41581050661707      0.10528262642149     -2.56112643656411
  H           1.54189904473761      2.15292395337777     -0.07722395279324
  H          -1.50482738883894      3.33242166445044      0.38310504531321
  H          -3.10922297506541     -0.72818118452811      0.14164041373448
  H          -0.15777433056173      1.32156870813165      2.62723078647566
  H          -0.14184342610839     -1.66497580878553      1.22845322124990
