%chk=Fe_3_B3PW91_3_6.chk
#p B3PW91 6-31+G(2df,p) empiricaldispersion=gd3 scf=(maxcycles=500,xqc,maxconventional=50) scrf=(cpcm,solvent=water)

Fe_3_B3PW91_solvated_radius_4

3 6
Fe        -0.00001       -0.00007        0.00033
O         -1.27999       -1.15218       -1.08346
H         -1.35467       -2.12297       -1.04761
O          1.39197       -0.15731       -1.47552
H          2.27922        0.24529       -1.47791
O         -0.75185        1.66911       -0.88798
H         -1.50107        2.20495       -0.57042
O          1.27616        1.15535        1.08469
H          1.93082        0.84043        1.73396
O         -1.39240        0.15355        1.47565
H         -2.28170       -0.24450        1.47334
O          0.75612       -1.66838        0.88594
H          1.50860       -2.19931        0.56783
H          0.43341       -2.08400        1.70596
H          1.29428       -0.64984       -2.31049
H         -1.93220       -0.83454       -1.73386
H         -1.29324        0.63814        2.31509
H         -0.42826        2.08043       -1.70981
H          1.34489        2.12666        1.05068
O 1.798441031768586 4.2631578947390604e-05 4.124811052631579
H 2.698441031768586 4.2631578947390604e-05 4.124811052631579
H 1.5054296927571449 0.8510093496183325 4.124811052631579
O -2.1947522998768694 -2.0105341165316126 3.374811052631579
H -1.2947522998768695 -2.0105341165316126 3.374811052631579
H -2.4877636388883104 -1.1595673984922275 3.374811052631579
O 0.31954942024960625 3.641095481915358 2.6248110526315784
H 1.2195494202496062 3.641095481915358 2.6248110526315784
H 0.026538081238165256 4.492062199954743 2.6248110526315784
O 2.4889858506920386 -3.2463931670959543 1.8748110526315789
H 3.3889858506920385 -3.2463931670959543 1.8748110526315789
H 2.1959745116805975 -2.3954264490565693 1.8748110526315789
O -4.290497085062763 0.7589718987365891 1.1248110526315789
H -3.3904970850627634 0.7589718987365891 1.1248110526315789
H -4.583508424074204 1.6099386167759744 1.1248110526315789
O 3.7836963925534692 2.4069178821199055 0.3748110526315792
H 4.683696392553469 2.4069178821199055 0.3748110526315792
H 3.490685053542028 3.257884600159291 0.3748110526315792
O -1.1641517774900456 -4.3305596170194685 -0.37518894736842084
H -0.2641517774900456 -4.3305596170194685 -0.37518894736842084
H -1.4571631165014867 -3.4795928989800835 -0.37518894736842084
O -2.008216674196672 3.8667497420493575 -1.1251889473684207
H -1.108216674196672 3.8667497420493575 -1.1251889473684207
H -2.301228013208113 4.7177164600887425 -1.1251889473684207
O 3.8425488123061413 -1.4032484940727183 -1.8751889473684218
H 4.742548812306142 -1.4032484940727183 -1.8751889473684218
H 3.5495374732947003 -0.5522817760333332 -1.8751889473684218
O -3.3785230541786704 -1.3945643100519372 -2.6251889473684202
H -2.4785230541786705 -1.3945643100519372 -2.6251889473684202
H -3.6715343931901114 -0.543597592012552 -2.6251889473684202
O 1.2615691947497696 2.6959337255553484 -3.375188947368421
H 2.1615691947497697 2.6959337255553484 -3.375188947368421
H 0.9685578557383285 3.5469004435947333 -3.375188947368421
O 0.5382473323476277 -1.7159612558910213 -4.125188947368421
H 1.4382473323476277 -1.7159612558910213 -4.125188947368421
H 0.24523599333618668 -0.8649945378516362 -4.125188947368421



