%chk=Fe_3_PBE0_3_6.chk
#p PBE1PBE 6-31+G(2df,p) scf=(maxcycles=500,xqc,maxconventional=50) scrf=(cpcm,solvent=water)

Fe_3_PBE0_solvated_radius_4

3 6
Fe         0.00006       -0.00001       -0.00018
O         -1.16544        0.83251        1.43850
H         -1.69526        0.35461        2.10010
O         -1.58283       -0.01443       -1.27101
H         -1.58481       -0.34180       -2.18732
O          0.51218        1.85075       -0.65837
H          1.26726        2.38319       -0.35311
O          1.16457       -0.83330       -1.43884
H          1.29901       -1.78465       -1.59263
O          1.58129        0.01623        1.27284
H          1.57919        0.33851        2.19096
O         -0.50988       -1.85174        0.65723
H         -1.26606       -2.38391        0.35425
H         -0.04295       -2.37243        1.33374
H         -2.48111        0.30507       -1.07655
H         -1.29834        1.78373        1.59451
H          2.48201       -0.29647        1.07861
H          0.04838        2.37038       -1.33785
H          1.69207       -0.35607       -2.10277
O 1.798402084400165 8.947368421035285e-06 4.125111052631579
H 2.698402084400165 8.947368421035285e-06 4.125111052631579
H 1.5053907453887239 0.8509756654078062 4.125111052631579
O -2.1947912472452904 -2.0105678007421393 3.375111052631579
H -1.2947912472452905 -2.0105678007421393 3.375111052631579
H -2.4878025862567315 -1.159601082702754 3.375111052631579
O 0.31951047288118517 3.641061797704831 2.6251110526315786
H 1.2195104728811852 3.641061797704831 2.6251110526315786
H 0.026499133869744174 4.492028515744217 2.6251110526315786
O 2.4889469033236176 -3.246426851306481 1.8751110526315788
H 3.3889469033236175 -3.246426851306481 1.8751110526315788
H 2.1959355643121765 -2.395460133267096 1.8751110526315788
O -4.290536032431184 0.7589382145260628 1.1251110526315788
H -3.3905360324311844 0.7589382145260628 1.1251110526315788
H -4.583547371442625 1.609904932565448 1.1251110526315788
O 3.783657445185048 2.406884197909379 0.37511105263157923
H 4.683657445185048 2.406884197909379 0.37511105263157923
H 3.490646106173607 3.2578509159487643 0.37511105263157923
O -1.1641907248584666 -4.330593301229994 -0.3748889473684208
H -0.2641907248584666 -4.330593301229994 -0.3748889473684208
H -1.4572020638699077 -3.4796265831906092 -0.3748889473684208
O -2.008255621565093 3.866716057838831 -1.1248889473684207
H -1.108255621565093 3.866716057838831 -1.1248889473684207
H -2.301266960576534 4.717682775878216 -1.1248889473684207
O 3.8425098649377203 -1.4032821782832448 -1.8748889473684218
H 4.742509864937721 -1.4032821782832448 -1.8748889473684218
H 3.5494985259262792 -0.5523154602438596 -1.8748889473684218
O -3.3785620015470914 -1.3945979942624636 -2.62488894736842
H -2.4785620015470915 -1.3945979942624636 -2.62488894736842
H -3.6715733405585325 -0.5436312762230784 -2.62488894736842
O 1.2615302473813486 2.6959000413448218 -3.374888947368421
H 2.1615302473813487 2.6959000413448218 -3.374888947368421
H 0.9685189083699075 3.5468667593842067 -3.374888947368421
O 0.5382083849792065 -1.7159949401015477 -4.124888947368421
H 1.4382083849792067 -1.7159949401015477 -4.124888947368421
H 0.24519704596776554 -0.8650282220621626 -4.124888947368421



