%chk=Fe_3_HSE06_3_6.chk
#p HSEH1PBE 6-31+G(2df,p) scf=(maxcycles=500,xqc,maxconventional=50) scrf=(cpcm,solvent=water)

Fe_3_HSE06_solvated_radius_4

3 6
Fe         0.00001       -0.00001        0.00000
O          0.55328        1.63385       -1.07430
H          0.14125        1.95020       -1.89721
O          1.28242       -1.14621       -1.08237
H          1.43285       -2.10175       -0.97571
O          1.47645        0.38326        1.34274
H          1.40137        0.93407        2.14149
O         -0.55338       -1.63379        1.07436
H         -1.28000       -2.24520        0.86170
O         -1.28237        1.14622        1.08238
H         -1.43321        2.10171        0.97512
O         -1.47640       -0.38329       -1.34279
H         -1.40127       -0.93394       -2.14165
H         -2.38999       -0.05001       -1.30669
H          1.85993       -0.84181       -1.80408
H          1.27981        2.24535       -0.86157
H         -1.85972        0.84178        1.80435
H          2.38999        0.04981        1.30673
H         -0.14121       -1.95025        1.89717
O 1.79842682124227 -5.263157894771322e-07 4.1249826315789475
H 2.69842682124227 -5.263157894771322e-07 4.1249826315789475
H 1.505415482230829 0.8509661917235957 4.1249826315789475
O -2.194766510403185 -2.0105772744263497 3.3749826315789475
H -1.2947665104031851 -2.0105772744263497 3.3749826315789475
H -2.487777849414626 -1.1596105563869645 3.3749826315789475
O 0.3195352097232904 3.6410523240206207 2.624982631578947
H 1.2195352097232903 3.6410523240206207 2.624982631578947
H 0.026523870711849418 4.492019042060006 2.624982631578947
O 2.488971640165723 -3.2464363249906913 1.8749826315789473
H 3.388971640165723 -3.2464363249906913 1.8749826315789473
H 2.195960301154282 -2.3954696069513064 1.8749826315789473
O -4.290511295589079 0.7589287408418522 1.1249826315789473
H -3.390511295589079 0.7589287408418522 1.1249826315789473
H -4.58352263460052 1.6098954588812373 1.1249826315789473
O 3.7836821820271536 2.4068747242251685 0.3749826315789476
H 4.6836821820271535 2.4068747242251685 0.3749826315789476
H 3.4906708430157125 3.257841442264554 0.3749826315789476
O -1.1641659880163615 -4.330602774914205 -0.37501736842105243
H -0.2641659880163615 -4.330602774914205 -0.37501736842105243
H -1.4571773270278026 -3.4796360568748197 -0.37501736842105243
O -2.0082308847229875 3.8667065841546204 -1.1250173684210523
H -1.1082308847229876 3.8667065841546204 -1.1250173684210523
H -2.3012422237344285 4.717673302194005 -1.1250173684210523
O 3.8425346017798256 -1.4032916519674552 -1.8750173684210534
H 4.742534601779826 -1.4032916519674552 -1.8750173684210534
H 3.5495232627683846 -0.55232493392807 -1.8750173684210534
O -3.378537264704986 -1.394607467946674 -2.6250173684210516
H -2.478537264704986 -1.394607467946674 -2.6250173684210516
H -3.671548603716427 -0.5436407499072888 -2.6250173684210516
O 1.2615549842234537 2.6958905676606113 -3.3750173684210525
H 2.1615549842234536 2.6958905676606113 -3.3750173684210525
H 0.9685436452120126 3.5468572856999963 -3.3750173684210525
O 0.5382331218213118 -1.7160044137857582 -4.1250173684210525
H 1.4382331218213118 -1.7160044137857582 -4.1250173684210525
H 0.24522178280987078 -0.865037695746373 -4.1250173684210525



