%chk=Fe_3_BLYP_3_6.chk
#p BLYP 6-31+G(2df,p) empiricaldispersion=gd3 scf=(maxcycles=500,xqc,maxconventional=50) scrf=(cpcm,solvent=water)

Fe_3_BLYP_solvated_radius_4

3 6
Fe        -0.00000        0.00001        0.00001
O          0.84815        1.57230       -1.05342
H          0.50151        1.97531       -1.88415
O          1.11172       -1.34832       -1.11684
H          1.10122       -2.33059       -1.02897
O          1.53206        0.10796        1.39363
H          1.53953        0.65409        2.21483
O         -0.84818       -1.57221        1.05352
H         -1.67373       -2.05749        0.81762
O         -1.11176        1.34831        1.11681
H         -1.10136        2.33055        1.02891
O         -1.53197       -0.10806       -1.39372
H         -1.53927       -0.65417       -2.21493
H         -2.38990        0.37722       -1.35977
H          1.74989       -1.12764       -1.83567
H          1.67384        2.05739       -0.81761
H         -1.74999        1.12764        1.83556
H          2.38991       -0.37745        1.35960
H         -0.50173       -1.97493        1.88447
O 1.7984336633475333 -4.210526315817058e-06 4.124993684210526
H 2.6984336633475334 -4.210526315817058e-06 4.124993684210526
H 1.5054223243360922 0.8509625075130693 4.124993684210526
O -2.194759668297922 -2.0105809586368757 3.3749936842105264
H -1.2947596682979219 -2.0105809586368757 3.3749936842105264
H -2.487771007309363 -1.1596142405974905 3.3749936842105264
O 0.31954205182855355 3.6410486398100947 2.624993684210526
H 1.2195420518285536 3.6410486398100947 2.624993684210526
H 0.026530712817112556 4.49201535784948 2.624993684210526
O 2.488978482270986 -3.2464400092012173 1.8749936842105264
H 3.388978482270986 -3.2464400092012173 1.8749936842105264
H 2.195967143259545 -2.3954732911618324 1.8749936842105264
O -4.290504453483816 0.7589250566313259 1.1249936842105264
H -3.3905044534838162 0.7589250566313259 1.1249936842105264
H -4.583515792495257 1.609891774670711 1.1249936842105264
O 3.783689024132417 2.4068710400146425 0.3749936842105266
H 4.683689024132417 2.4068710400146425 0.3749936842105266
H 3.4906776851209758 3.257837758054028 0.3749936842105266
O -1.1641591459110983 -4.3306064591247315 -0.37500631578947347
H -0.26415914591109824 -4.3306064591247315 -0.37500631578947347
H -1.4571704849225393 -3.4796397410853466 -0.37500631578947347
O -2.0082240426177242 3.8667028999440944 -1.1250063157894732
H -1.1082240426177243 3.8667028999440944 -1.1250063157894732
H -2.3012353816291653 4.717669617983479 -1.1250063157894732
O 3.842541443885089 -1.4032953361779816 -1.8750063157894743
H 4.742541443885089 -1.4032953361779816 -1.8750063157894743
H 3.549530104873648 -0.5523286181385965 -1.8750063157894743
O -3.378530422599723 -1.3946111521572004 -2.6250063157894727
H -2.478530422599723 -1.3946111521572004 -2.6250063157894727
H -3.671541761611164 -0.5436444341178153 -2.6250063157894727
O 1.261561826328717 2.6958868834500853 -3.3750063157894736
H 2.161561826328717 2.6958868834500853 -3.3750063157894736
H 0.9685504873172759 3.5468536014894703 -3.3750063157894736
O 0.538239963926575 -1.7160080979962846 -4.125006315789474
H 1.438239963926575 -1.7160080979962846 -4.125006315789474
H 0.24522862491513403 -0.8650413799568994 -4.125006315789474



