%chk=Fe_3_M06-L_3_6.chk
#p M06L 6-31+G(2df,p) scf=(maxcycles=500,xqc,maxconventional=50) scrf=(cpcm,solvent=water)

Fe_3_M06-L_solvated_radius_4

3 6
Fe         0.00002        0.00002       -0.00002
O         -0.97334       -1.33082        1.20951
H         -1.58830       -1.11829        1.93338
O          1.56493        0.05253        1.31532
H          2.38173        0.57463        1.22824
O          0.88780       -1.55190       -0.99264
H          0.54414       -2.01487       -1.77680
O          0.97333        1.33089       -1.20951
H          0.91199        2.30165       -1.17530
O         -1.56504       -0.05275       -1.31517
H         -2.38142       -0.57554       -1.22808
O         -0.88772        1.55201        0.99253
H         -0.54385        2.01528        1.77641
H         -1.73730        1.97333        0.77343
H          1.63944       -0.43913        2.15200
H         -0.91193       -2.30158        1.17543
H         -1.64016        0.43923       -2.15162
H          1.73725       -1.97341       -0.77338
H          1.58819        1.11840       -1.93348
O 1.7984241896633228 -1.6842105263163053e-05 4.125013157894736
H 2.698424189663323 -1.6842105263163053e-05 4.125013157894736
H 1.5054128506518818 0.850949875934122 4.125013157894736
O -2.1947691419821322 -2.0105935902158234 3.375013157894737
H -1.2947691419821323 -2.0105935902158234 3.375013157894737
H -2.4877804809935733 -1.1596268721764382 3.375013157894737
O 0.3195325781443431 3.641036008231147 2.6250131578947364
H 1.2195325781443431 3.641036008231147 2.6250131578947364
H 0.026521239132902108 4.492002726270532 2.6250131578947364
O 2.4889690085867757 -3.246452640780165 1.8750131578947369
H 3.3889690085867756 -3.246452640780165 1.8750131578947369
H 2.1959576695753347 -2.3954859227407796 1.8750131578947369
O -4.290513927168027 0.7589124250523785 1.1250131578947369
H -3.3905139271680267 0.7589124250523785 1.1250131578947369
H -4.583525266179468 1.6098791430917636 1.1250131578947369
O 3.7836795504482064 2.4068584084356948 0.3750131578947371
H 4.683679550448207 2.4068584084356948 0.3750131578947371
H 3.4906682114367653 3.2578251264750797 0.3750131578947371
O -1.1641686195953087 -4.330619090703679 -0.37498684210526295
H -0.2641686195953087 -4.330619090703679 -0.37498684210526295
H -1.4571799586067498 -3.479652372664294 -0.37498684210526295
O -2.0082335163019347 3.8666902683651467 -1.1249868421052627
H -1.1082335163019348 3.8666902683651467 -1.1249868421052627
H -2.3012448553133757 4.717656986404532 -1.1249868421052627
O 3.8425319702008784 -1.403307967756929 -1.8749868421052638
H 4.742531970200878 -1.403307967756929 -1.8749868421052638
H 3.5495206311894374 -0.5523412497175437 -1.8749868421052638
O -3.3785398962839333 -1.3946237837361477 -2.6249868421052622
H -2.4785398962839333 -1.3946237837361477 -2.6249868421052622
H -3.6715512352953743 -0.5436570656967625 -2.6249868421052622
O 1.2615523526445065 2.6958742518711376 -3.374986842105263
H 2.1615523526445064 2.6958742518711376 -3.374986842105263
H 0.9685410136330654 3.546840969910523 -3.374986842105263
O 0.5382304902423645 -1.7160207295752319 -4.124986842105264
H 1.4382304902423644 -1.7160207295752319 -4.124986842105264
H 0.24521915123092347 -0.8650540115358467 -4.124986842105264



