%chk=Cr_2_B3LYP
#p B3LYP empiricaldispersion=gd3 6-31+G(2df,p) scf=(maxcycles=500,xqc,maxconventional=50) scrf=(cpcm,solvent=water)

title

2  5
Cr        -0.00000       -0.00000       -0.00000
O         -0.27054        0.00000       -2.07362
H         -1.12827        0.00000       -2.52277
O          0.00000       -2.09505       -0.00000
H          0.09624       -2.66573        0.77519
O          2.36795        0.00000       -0.23540
H          2.94815        0.77030       -0.31545
O          0.27054       -0.00000        2.07362
H         -0.42353       -0.00000        2.74850
O         -0.00000        2.09505        0.00000
H         -0.09624        2.66573       -0.77519
O         -2.36795       -0.00000        0.23541
H         -2.94815       -0.77030        0.31545
H         -2.94815        0.77029        0.31545
H         -0.09623       -2.66573       -0.77519
H          0.42353        0.00000       -2.74850
H          0.09623        2.66573        0.77519
H          2.94815       -0.77029       -0.31545
H          1.12827        0.00000        2.52277
O 1.7984368212422701 -4.0902953538821554e-17 4.125000526315789
H 2.6984368212422702 -4.0902953538821554e-17 4.125000526315789
H 1.505425482230829 0.8509667180393852 4.125000526315789
O -2.194756510403185 -2.01057674811056 3.3750005263157896
H -1.294756510403185 -2.01057674811056 3.3750005263157896
H -2.487767849414626 -1.159610030071175 3.3750005263157896
O 0.3195452097232904 3.6410528503364104 2.625000526315789
H 1.2195452097232904 3.6410528503364104 2.625000526315789
H 0.026533870711849428 4.492019568375795 2.625000526315789
O 2.488981640165723 -3.2464357986749017 1.8750005263157894
H 3.388981640165723 -3.2464357986749017 1.8750005263157894
H 2.195970301154282 -2.3954690806355163 1.8750005263157894
O -4.290501295589079 0.7589292671576418 1.1250005263157894
H -3.3905012955890794 0.7589292671576418 1.1250005263157894
H -4.58351263460052 1.609895985197027 1.1250005263157894
O 3.7836921820271536 2.406875250540958 0.37500052631578973
H 4.683692182027154 2.406875250540958 0.37500052631578973
H 3.4906808430157126 3.257841968580343 0.37500052631578973
O -1.1641559880163614 -4.3306022485984155 -0.3749994736842103
H -0.2641559880163614 -4.3306022485984155 -0.3749994736842103
H -1.4571673270278025 -3.4796355305590305 -0.3749994736842103
O -2.0082208847229874 3.86670711047041 -1.1249994736842102
H -1.1082208847229875 3.86670711047041 -1.1249994736842102
H -2.3012322237344285 4.717673828509795 -1.1249994736842102
O 3.8425446017798257 -1.4032911256516658 -1.8749994736842113
H 4.742544601779826 -1.4032911256516658 -1.8749994736842113
H 3.5495332627683847 -0.5523244076122806 -1.8749994736842113
O -3.378527264704986 -1.3946069416308846 -2.6249994736842095
H -2.478527264704986 -1.3946069416308846 -2.6249994736842095
H -3.671538603716427 -0.5436402235914994 -2.6249994736842095
O 1.2615649842234538 2.695891093976401 -3.3749994736842104
H 2.1615649842234537 2.695891093976401 -3.3749994736842104
H 0.9685536452120127 3.5468578120157863 -3.3749994736842104
O 0.5382431218213118 -1.7160038874699688 -4.124999473684211
H 1.4382431218213119 -1.7160038874699688 -4.124999473684211
H 0.24523178280987085 -0.8650371694305836 -4.124999473684211
O 2.323169485433484 0.1457348560637981 6.138889415204678
H 3.223169485433484 0.1457348560637981 6.138889415204678
H 2.030158146422043 0.9967015741031833 6.138889415204678
O -2.4625665508572974 -2.281308654161119 5.416667192982456
H -1.5625665508572975 -2.281308654161119 5.416667192982456
H -2.7555778898687384 -1.430341936121734 5.416667192982456
O 0.5798556591780243 4.624317709827226 4.694444970760234
H 1.4798556591780243 4.624317709827226 4.694444970760234
H 0.2868443201665833 5.475284427866611 4.694444970760234
O 3.317250447555881 -3.9373738342920004 3.972222748538011
H 4.217250447555881 -3.9373738342920004 3.972222748538011
H 3.02423910854444 -3.086407116252615 3.972222748538011
O -5.35630746772339 1.1262338164736474 3.2500005263157896
H -4.45630746772339 1.1262338164736474 3.2500005263157896
H -5.649318806734831 1.9772005345130326 3.2500005263157896
O 5.239509627784966 3.3598504595714505 2.5277783040935664
H 6.139509627784967 3.3598504595714505 2.5277783040935664
H 4.946498288773525 4.210817177610836 2.5277783040935664
O -1.4342125182392031 -5.884378223308392 1.8055560818713445
H -0.5342125182392031 -5.884378223308392 1.8055560818713445
H -1.7272238572506442 -5.033411505269007 1.8055560818713445
O -2.767185616825219 5.833468542765283 1.0833338596491224
H -1.867185616825219 5.833468542765283 1.0833338596491224
H -3.06019695583666 6.684435260804668 1.0833338596491224
O 6.282966281821296 -2.080572611519381 0.36111163742690033
H 7.1829662818212965 -2.080572611519381 0.36111163742690033
H 5.989954942809855 -1.2296058934799958 0.36111163742690033
O -5.812159623242989 -2.330551500745056 -0.3611105847953218
H -4.912159623242989 -2.330551500745056 -0.3611105847953218
H -6.10517096225443 -1.4795847827056707 -0.3611105847953218
O 2.9032729575247114 5.950664093017693 -1.0833328070175439
H 3.8032729575247113 5.950664093017693 -1.0833328070175439
H 2.6102616185132703 6.801630811057078 -1.0833328070175439
O 2.0555941020625603 -5.812251815579955 -1.805555029239766
H 2.9555941020625602 -5.812251815579955 -1.805555029239766
H 1.7625827630511193 -4.9612850975405705 -1.805555029239766
O -4.994380479726406 3.1483391035414483 -2.5277772514619885
H -4.094380479726405 3.1483391035414483 -2.5277772514619885
H -5.287391818737847 3.9993058215808333 -2.5277772514619885
O 5.684676544484756 1.3544259775965113 -3.249999473684212
H 6.584676544484756 1.3544259775965113 -3.249999473684212
H 5.3916652054733145 2.2053926956358962 -3.249999473684212
O -2.772257359924187 -4.063230184163302 -3.972221695906433
H -1.8722573599241872 -4.063230184163302 -3.972221695906433
H -3.065268698935628 -3.2122634661239173 -3.972221695906433
O -0.3909506420316564 4.604253339870731 -4.6944439181286555
H 0.5090493579683436 4.604253339870731 -4.6944439181286555
H -0.6839619810430975 5.4552200579101155 -4.6944439181286555
O 2.934198973640388 -2.1697697200636634 -5.416666140350877
H 3.834198973640388 -2.1697697200636634 -5.416666140350877
H 2.641187634628947 -1.3188030020242782 -5.416666140350877
O -1.9477304644689095 0.05746501630760885 -6.138888362573099
H -1.0477304644689096 0.05746501630760885 -6.138888362573099
H -2.2407418034803506 0.908431734346994 -6.138888362573099
O 2.7156446105928285 0.2593464873561966 8.145833859649123
H 3.6156446105928284 0.2593464873561966 8.145833859649123
H 2.4226332715813874 1.1103132053955818 8.145833859649123
O -2.74670569840875 -2.520326339105907 7.437500526315789
H -1.84670569840875 -2.520326339105907 7.437500526315789
H -3.039717037420191 -1.669359621066522 7.437500526315789
O 0.7416110427170794 5.432565039974909 6.729167192982455
H 1.6416110427170794 5.432565039974909 6.729167192982455
H 0.44859970370563845 6.283531758014294 6.729167192982455
O 3.938211432143737 -4.502229316576592 6.020833859649122
H 4.838211432143737 -4.502229316576592 6.020833859649122
H 3.645200093132296 -3.6512625985372074 6.020833859649122
O -6.2462793308893865 1.4150977895493968 5.31250052631579
H -5.346279330889386 1.4150977895493968 5.31250052631579
H -6.5392906699008275 2.2660645075887818 5.31250052631579
O 6.3162687164922975 4.094291872026285 4.604167192982456
H 7.216268716492298 4.094291872026285 4.604167192982456
H 6.023257377480856 4.94525859006567 4.604167192982456
O -1.673615025183987 -7.036276665826197 3.8958338596491213
H -0.773615025183987 -7.036276665826197 3.8958338596491213
H -1.966626364195428 -6.185309947786812 3.8958338596491213
O -3.3442138301309257 7.252183541846794 3.1875005263157896
H -2.4442138301309257 7.252183541846794 3.1875005263157896
H -3.6372251691423667 8.10315025988618 3.1875005263157896
O 7.924677115470761 -2.529701726700732 2.4791671929824552
H 8.824677115470761 -2.529701726700732 2.4791671929824552
H 7.63166577645932 -1.6787350086613466 2.4791671929824552
O -7.39693911721087 -2.91271966368942 1.7708338596491224
H -6.49693911721087 -2.91271966368942 1.7708338596491224
H -7.689950456222311 -2.061752945650035 1.7708338596491224
O 3.8620343949172455 7.897704586955999 1.0625005263157896
H 4.7620343949172455 7.897704586955999 1.0625005263157896
H 3.5690230559058045 8.748671304995385 1.0625005263157896
O 2.8293039037736563 -7.8440052034742145 0.35416719298245547
H 3.729303903773656 -7.8440052034742145 0.35416719298245547
H 2.536292564762215 -6.9930384854348295 0.35416719298245547
O -7.060308299860354 4.51760969878767 -0.3541661403508786
H -6.160308299860354 4.51760969878767 -0.3541661403508786
H -7.353319638871795 5.368576416827055 -0.3541661403508786
O 8.524231625241473 2.0701467845900496 -1.0624994736842113
H 9.424231625241474 2.0701467845900496 -1.0624994736842113
H 8.231220286230032 2.921113502629435 -1.0624994736842113
O -4.493733637639945 -6.541608985295468 -1.7708328070175439
H -3.593733637639945 -6.541608985295468 -1.7708328070175439
H -4.786744976651386 -5.6906422672560835 -1.7708328070175439
O -0.7572456353882107 8.322350249398985 -2.4791661403508782
H 0.14275436461178936 8.322350249398985 -2.4791661403508782
H -1.0502569743996517 9.173316967438371 -2.4791661403508782
O 6.312813291414814 -4.81870942333755 -3.1874994736842113
H 7.212813291414815 -4.81870942333755 -3.1874994736842113
H 6.019801952403373 -3.967742705298165 -3.1874994736842113
O -7.260581668537592 -0.05279453378254256 -3.895832807017543
H -6.360581668537591 -0.05279453378254256 -3.895832807017543
H -7.553593007549033 0.7981721842568426 -3.895832807017543
O 5.352217405593763 5.29931698382687 -4.604166140350879
H 6.252217405593763 5.29931698382687 -4.604166140350879
H 5.0592060665823215 6.150283701866255 -4.604166140350879
O -0.018894307455008474 -6.368881392113691 -5.312499473684211
H 0.8811056925449916 -6.368881392113691 -5.312499473684211
H -0.31190564646644947 -5.517914674074306 -5.312499473684211
O -3.556631422964206 4.866020845322549 -6.020832807017546
H -2.6566314229642063 4.866020845322549 -6.020832807017546
H -3.8496427619756473 5.716987563361934 -6.020832807017546
O 5.434325546587619 -0.4331381189204745 -6.729166140350879
H 6.334325546587619 -0.4331381189204745 -6.729166140350879
H 5.141314207576178 0.4178285991189107 -6.729166140350879
O -3.0902685625051984 -2.090886667131924 -7.437499473684211
H -2.1902685625051985 -2.090886667131924 -7.437499473684211
H -3.3832799015166395 -1.239919949092539 -7.437499473684211
O 0.8205107687674358 2.628187070638242 -8.145832807017543
H 1.720510768767436 2.628187070638242 -8.145832807017543
H 0.5274994297559947 3.4791537886776274 -8.145832807017543



