19
Fe_2_OPBE.log	Energy: -1080609.0770758
Fe         0.00063       -0.00122        0.00002
O         -1.93448       -0.91050        0.49260
H         -2.56723       -1.31399       -0.11445
O         -0.97189        1.95719       -0.12168
H         -0.61027        2.76367       -0.51066
O          0.39618        0.33023        2.08540
H          0.90463       -0.24382        2.67296
O          1.92807        0.92372       -0.49418
H          2.28337        1.05513       -1.38221
O          0.97384       -1.95917        0.12332
H          1.85393       -2.18792       -0.20299
O         -0.39561       -0.33371       -2.08527
H         -0.90722        0.24017       -2.67035
H         -0.21226       -1.14131       -2.58287
H         -1.85813        2.18104        0.18954
H         -2.28716       -1.04475        1.38093
H          0.61709       -2.76356        0.52117
H          0.21520        1.14010        2.58013
H          2.58288        1.28495        0.11686
