19
Fe_2_n12.log	Energy: -1080668.7591124
Fe        -0.00025       -0.00003        0.00002
O         -0.09691        1.81472       -1.06251
H         -0.11013        1.90612       -2.01534
O          2.12450        0.09559       -0.02708
H          2.72070       -0.41329        0.52224
O         -0.02510        1.09020        1.76825
H         -0.80668        1.37811        2.24134
O          0.09692       -1.81480        1.06241
H          0.13188       -2.69268        0.68240
O         -2.12470       -0.09536        0.02707
H         -2.72073        0.41192       -0.52392
O          0.02593       -1.09030       -1.76818
H          0.80835       -1.37764       -2.24023
H         -0.73874       -1.45043       -2.21890
H          2.65975        0.65497       -0.58992
H         -0.13465        2.69252       -0.68256
H         -2.66017       -0.65294        0.59150
H          0.74043        1.44980        2.21793
H          0.11145       -1.90623        2.01521
