19
Fe_2_B97D_secondrun.log	Energy: -1080762.9252415
Fe         0.00000        0.00000       -0.00000
O         -0.00429        2.11036       -0.26062
H         -0.40165        2.58139       -1.01092
O          2.03228       -0.12581       -0.98560
H          2.45640       -0.96679       -1.22109
O          1.13092        0.23446        1.79540
H          0.82486        0.39489        2.70278
O          0.00429       -2.11036        0.26062
H         -0.44932       -2.75209       -0.30953
O         -2.03228        0.12581        0.98560
H         -2.45641        0.96680        1.22108
O         -1.13092       -0.23446       -1.79540
H         -0.82486       -0.39489       -2.70278
H         -2.10227       -0.23759       -1.78707
H          2.40673        0.55947       -1.56243
H          0.44932        2.75209        0.30953
H         -2.40673       -0.55946        1.56244
H          2.10227        0.23759        1.78707
H          0.40165       -2.58139        1.01092
