19
Fe_2_TPSSh.log	Energy: -1080603.5108472
Fe        -0.00002        0.00001       -0.00000
O          1.72155        0.81992        0.97593
H          1.85583        0.88747        1.93332
O         -0.92509        1.93971       -0.00179
H         -1.69931        2.20996       -0.51820
O          0.90273        0.42761       -1.86045
H          1.51428       -0.14622       -2.34709
O         -1.72150       -0.82004       -0.97594
H         -2.50975       -1.19097       -0.55151
O          0.92510       -1.93968        0.00182
H          1.69950       -2.20980        0.51802
O         -0.90274       -0.42761        1.86045
H         -1.51415        0.14626        2.34722
H         -0.84597       -1.26402        2.34757
H         -0.64682        2.71348        0.51101
H          2.50939        1.19173        0.55145
H          0.64674       -2.71354       -0.51081
H          0.84583        1.26394       -2.34771
H         -1.85564       -0.88781       -1.93334
