19
Ti_3_HSE06.log	Energy: -820232.8370441
Ti         0.00012       -0.00001       -0.00009
O          0.31319       -1.69200        1.16178
H          0.11420       -2.60991        0.90712
O         -1.61888        0.57174        1.16721
H         -2.31410        1.20494        0.91685
O          1.30815        1.11366        1.16577
H          2.20312        1.40038        0.91321
O         -0.31287        1.69218       -1.16166
H         -0.71457        1.73734       -2.04656
O          1.61890       -0.57302       -1.16683
H          1.85599       -0.24705       -2.05229
O         -1.30871       -1.11252       -1.16613
H         -2.20386       -1.39847       -0.91338
H         -1.14676       -1.47959       -2.05241
H         -1.85645        0.24369        2.05175
H          0.71382       -1.73683        2.04721
H          2.31452       -1.20528       -0.91517
H          1.14565        1.48065        2.05198
H         -0.11254        2.60989       -0.90741
