19
Ti_3_B3LYP.log	Energy: -820649.1884786
Ti         0.00002        0.00004       -0.00020
O          1.60846        0.63287        1.17372
H          2.55282        0.60325        0.92623
O         -0.25576       -1.70878        1.17419
H         -0.75441       -2.51148        0.92728
O         -1.35275        1.07528        1.17424
H         -1.79898        1.90838        0.92771
O         -1.60864       -0.63116       -1.17446
H         -1.57272       -1.04047       -2.06027
O          0.25756        1.70937       -1.17318
H         -0.11677        1.88518       -2.05776
O          1.35107       -1.07761       -1.17422
H          1.79650       -1.91082       -0.92662
H          1.68840       -0.84174       -2.05970
H          0.11898       -1.88288        2.05891
H          1.57225        1.04266        2.05929
H          0.75743        2.51099       -0.92513
H         -1.69049        0.83747        2.05903
H         -2.55296       -0.60111       -0.92691
