157
 energy: -265.394254204620 gnorm: 0.000786147854 xtb: 6.6.1 (8d0f1dd)
Fe          -0.09776663892607       -0.31253035314120        0.39498998303871
B           -0.79377626027680        3.11759780488456       -0.49928801607847
N           -1.21213820578821        3.23383706488003        0.76709059675952
C           -2.06081240652279        4.27353625588126        1.32830667597310
C           -0.70277042032311        3.58205031907405       -1.86049686770538
N           -0.51966647696351        3.81546992664073       -3.00203196913407
H           -0.94683296722502        2.55804991754134        1.48294536904530
H           -2.98415557057828        3.82447354600857        1.69128836697421
H           -1.55211135139772        4.75904235195048        2.16162476282894
H           -2.30678307403890        5.02181255967444        0.57742721402087
O            1.92234749049923        1.05634613964264        0.19813953611564
H            2.18085601952375        1.47713835787334       -0.63681760813599
H            2.70458925140791        0.54258760841957        0.45138096141473
O           -0.59516779865445       -2.59723280307220       -0.41770636340360
H           -0.16864387523796       -2.75965329480420       -1.27419688063652
H           -1.54401684066219       -2.55647781661463       -0.61445315545914
O           -2.51703296811561        0.24147897965987        0.66630210902569
H           -2.56458384132294       -0.31018766101355        1.46050753384314
H           -3.03825339167161        1.03395660691494        0.87188367823103
O            0.11214047138207        1.23072826540218        2.31955107621451
H            0.96354303085670        1.64642787184548        2.15698093567528
H            0.24826275242206        0.61331570004123        3.06665100063152
O           -0.10411357373229        0.12113491088829       -1.99551156035476
H           -0.93323120437175       -0.10688625229086       -2.47114951992908
H            0.34013249324141        0.77921326691861       -2.54626859062082
O            2.66127186684865       -0.21456496705688        5.78863919912020
H            3.49774519191887        0.18885104395122        5.53772889494552
H            2.26130976974004        0.38059101537919        6.43963327471273
O            0.78116816907262       -0.88404664093897        3.84231110362032
H            1.27598834354488       -1.27140532663658        3.09787463094726
H            1.41060402094408       -0.74889826347327        4.56625647571076
O           -0.23702207682161        5.99400740096055        3.61961732975466
H            0.26777926025698        6.69404166060501        3.19698002301700
H           -0.28935370038636        6.23121808586177        4.55660524941438
O            1.66818265334335       -1.77558226336371        1.36063789740244
H            2.56763324822436       -1.49724002183925        1.12526256183168
H            1.56792045122086       -2.68440709158295        1.07120925864971
O           -4.40345352614651        1.99015836159528        1.65846200007506
H           -4.61216720402052        1.75962977758563        2.56797176104606
H           -5.22685436211143        1.95843225641255        1.16549126209369
O            5.08553937270709        3.94843744611575        3.12423281949330
H            5.30600149130447        4.03330387768386        2.19161127471138
H            4.32135223734588        4.51158510104951        3.28340192623283
O           -1.29957529766345       -1.60629422329661        2.21595693230972
H           -1.26586894208432       -2.53865662457428        1.99517586429340
H           -0.79279986573801       -1.48466986873727        3.03099081925364
O           -3.21063387792040        6.84179534965701       -0.62554594232741
H           -2.67160191472810        7.63803167881331       -0.75323202358829
H           -4.10676620807464        7.15057206541428       -0.46582230246677
O            4.08562417431789       -0.65551787698950        0.63423634753606
H            4.44449638837292       -0.80174978647428       -0.24471804643212
H            4.82382802395172       -0.48743178482904        1.22428882154627
O           -3.18140581777155       -1.79145193576365       -0.97248491460115
H           -3.01986001163977       -0.97411890704135       -0.45261207225939
H           -4.06492267374039       -2.09604996997006       -0.76170537279184
O            3.33230409730750        7.54279020549944       -0.33111959795363
H            4.13059180254603        7.40891255996003       -0.86361703877482
H            2.64942730035470        7.00486262998364       -0.74565083286981
O            0.55161599571889       -2.37132881278734       -2.89881007240080
H            1.42919707534225       -2.52770607902907       -3.24834256574378
H            0.51156259439389       -1.43382643917572       -2.60906125772908
O           -6.09186584094763        2.86104235305767       -3.48747144531952
H           -5.75662456213932        1.96099728279240       -3.56099304738670
H           -5.36281081377457        3.40431597826314       -3.17113014638072
O            3.01358284813033        1.98611172803079       -2.12122939858404
H            2.38292378288652        1.89067397118590       -2.85576006463092
H            3.55561226786595        2.75340646931912       -2.30735095263184
O           -2.08834320593716       -1.05062566156467       -3.33997634782026
H           -2.59934173818927       -1.35341134090999       -2.56137543428077
H           -1.48495513671347       -1.77472337002947       -3.54723659460247
O            0.99704060896845        1.78356525009471       -3.97719094659875
H            0.44643714262192        2.57626362422647       -3.79354608735702
H            1.00023509401478        1.64746038705563       -4.92720341910023
O            1.61280932254277        1.79264507807427        7.48143800934685
H            1.62040445365203        1.90684668651943        8.43411392948319
H            1.20325484486967        2.57607928543441        7.09936982146931
O           -2.53080557595755       -2.11643351492522        7.46695697353552
H           -1.95186118284235       -1.37017493442873        7.65147728856386
H           -3.28080625009845       -1.76934155170029        6.97306672205786
O           -0.22941586808112        7.02828613146101        6.30255390429785
H            0.56708353374014        7.23459364480721        6.80065539373102
H           -0.93731174716379        7.57778542133812        6.65041340652415
O            3.97286382517944       -5.02534874388479        4.53454167913373
H            4.58378645966479       -4.36596263093675        4.18960451856349
H            3.67906742184513       -4.71227238487165        5.39501312474263
O           -3.95138711559271        2.93416239047157        7.12406527917055
H           -3.34399979997977        3.48374235745645        6.61682337022819
H           -4.70577994199655        3.48395649668007        7.35013830815100
O            4.80019749445055        5.40003568468201        8.15503433376151
H            5.35647769297296        4.68634931445160        7.82633449465233
H            5.01363132206916        6.18310245225752        7.63851687933185
O           -1.52653833735063       -6.33242029833061        4.64509539792809
H           -0.80606452758483       -5.88220719128962        5.09817559337709
H           -2.31270599738753       -6.21583434890926        5.18560215517645
O           -5.41258866061674        7.47921592057697        4.93403003354709
H           -4.87201528696572        7.20318773886358        4.18556143366721
H           -6.30469125794144        7.61003105404485        4.60058374774277
O            8.35752008536706       -1.49786908571803        3.91216039970623
H            8.66714310500165       -2.26058770360424        3.41366083910084
H            8.84600177778155       -1.47924730591490        4.73943597305029
O           -6.36675322208318       -2.36072874685756        3.41582219833153
H           -5.85851059464131       -3.17759564220584        3.38452605531373
H           -7.24109245849557       -2.55600043634196        3.07015763547808
O            4.04415338478447        9.40558539821934        4.34833172413793
H            4.81594891892678        9.06942897019989        3.88185750374238
H            3.56108852724673        9.95837114208754        3.72666292088870
O            1.47604919388564       -7.30183924895744        0.26600042674526
H            2.00788547023095       -7.42022915515219        1.05833200797058
H            0.56359952907791       -7.20247613715507        0.55751750766813
O           -8.37821057368437        5.46421130627945        0.91497170531790
H           -8.33536053234854        5.22375535143678       -0.01607857290232
H           -8.93290271200490        4.80937271014961        1.34981520582185
O            8.13668475395209        2.19149214635754       -1.08772316951516
H            8.07987749768417        1.61224453038206       -1.85426867486650
H            8.62039589406157        1.71503224028356       -0.40645306204102
O           -4.97525704724881       -6.48785025651468        0.28458619599222
H           -4.12346146363404       -6.63498222362226        0.70932664728753
H           -4.89887072127723       -6.80545134709111       -0.61957427029753
O           -1.66872657783909        9.21913666120824       -0.96282634824464
H           -1.15330361569008        9.56585270807683       -0.22804192064441
H           -1.18571914473207        9.42167831795119       -1.76972745246758
O            6.71051574489365       -4.72626762538892       -0.15238755619875
H            6.00588475899742       -5.38092310146449       -0.11139183141255
H            6.94943884450744       -4.62737389287908       -1.07834203012681
O           -8.93950622308383       -0.14379064153726       -0.66375731240683
H           -8.59709483617012       -0.92125091831966       -1.11681450727066
H           -9.50084871498594        0.32134644563299       -1.28993829084441
O            5.53130265628370        6.96036840171513       -2.07460621973991
H            6.34143544651738        6.47731968103177       -1.88462832264240
H            5.64634595109532        7.39401809259144       -2.92489096619160
O           -2.00383191539385       -6.44030552642183       -4.25171616201596
H           -1.26671327676098       -6.63907395921643       -3.66485182820943
H           -1.62648970411584       -6.10988689306922       -5.07210440368876
O           -3.33749675606587        7.50424292899542       -6.15822848889178
H           -3.29498661430318        7.09501843060792       -5.28713663338396
H           -4.23522778470171        7.82822919894189       -6.27392836010026
O            5.90734892481589       -1.59599610710466       -4.56768658578455
H            5.57092761540948       -0.79802695780936       -4.98813904518703
H            5.74665904334930       -2.32493750857137       -5.17310571323562
O           -6.50591773953417       -3.03752702618229       -4.72647591710325
H           -5.96203422843018       -3.82570403193176       -4.62794591876346
H           -6.09400655146843       -2.49371423399189       -5.40517503034564
O            1.89263508683115        8.18809826538778       -5.77182047518870
H            1.31435315980361        8.66117207792621       -6.37676641585868
H            1.34045779237761        7.56754538631241       -5.28359932824871
O            2.79815123416353       -5.61245252551034       -6.61152004479107
H            2.85946883910798       -6.43732133907677       -7.10069091768753
H            2.38997083513739       -4.96404531392055       -7.19443108244092
O           -3.44349932889170        2.43482494929761       -7.79219745277228
H           -2.89380042601513        2.84180504228378       -7.11363321577871
H           -4.21968347961856        2.99200228426418       -7.89564796306447
O            4.97230383496747        3.54454017273843       -6.72475578097290
H            5.45026890171698        3.61939490141434       -7.55470811680779
H            4.48350790308053        4.36466561294873       -6.60269606746197
O            0.05666916865113       -1.21902564751522       -8.61200773523681
H           -0.16661917109185       -0.57278938274325       -9.28732930561557
H           -0.72389025727731       -1.32550678362842       -8.05744217027932
