182
 energy: -302.842562445501 gnorm: 0.000645408392 xtb: 6.6.1 (8d0f1dd)
Fe           0.87193324226619       -0.68212783536405        0.34766987441362
B            0.00036315719086        2.72944950062326        0.71011582830168
C           -1.26063692332062        3.43447899595334        0.04554507672955
C            1.35594452561412        3.30100144007954        0.95109897105458
C            2.43228988167224        2.55313094874047        1.54765156096649
C            3.67852284480073        3.09168955811955        1.74426123408779
C            3.96976761260759        4.40973483791137        1.38232010940865
C            2.94978604775525        5.17422268014575        0.80278275093516
C            1.70422088089444        4.64756116736628        0.59491234062388
H           -2.09388043135668        3.53749739588124        0.74040429669925
H           -1.03105758285772        4.44122407309284       -0.29410651441227
H           -1.64262294884577        2.90225974742739       -0.82212811375718
H            2.26527871313959        1.51945358626666        1.81126995561537
H            4.47568021084104        2.49905289850778        2.17628340486255
H            4.95549580115625        4.82653137289435        1.54350852065423
H            3.15943043526736        6.19918839036168        0.50888312255180
H            0.95106982191490        5.28213353062033        0.14500208053119
O            1.94997602138285        0.95283886951374       -1.03955069384822
H            2.89609783907501        0.90936048978283       -0.89244095255904
H            1.69336988224024        1.86461967803980       -0.85245762964625
O            1.49041791135660       -2.86856665775192       -0.30915786049807
H            1.63516689088080       -3.56079156531330        0.33596158044150
H            0.74360425306949       -3.16703252205109       -0.85767126967837
O           -1.17999431441668       -1.74366490688895        0.82237000154005
H           -1.94776404029988       -1.16009257103108        0.89848469825659
H           -1.39880085295991       -2.41676343052038        0.16844761775695
O           -0.28120725303998        1.31613390396958        1.20842925431855
H           -1.27123020340764        1.11641252165362        1.05210784804214
H           -0.15553496991622        1.31086334720969        2.22184929547392
O           -0.31249807633576       -0.49011865181902       -1.72437063743901
H           -1.18010805888107       -0.04317361078196       -1.79289822885533
H            0.27025268559388       -0.06384957245378       -2.35572593600106
O            0.02705614836271        1.17533048231016        3.73251818668748
H            0.78539823615618        1.71385534025411        4.03806591796375
H           -0.72353879024609        1.41176403786588        4.28158804543288
O           -3.62071032494536       -2.06994823826303        5.76624629300288
H           -2.90067364734408       -2.03514902951147        6.41489135012625
H           -4.14866797605663       -1.27988423710333        5.91187789864566
O            0.34903242090966        6.64032714047907        5.95439674876729
H            0.57561608614498        6.82888871226629        5.03831045987501
H           -0.41668959981812        6.05585185991772        5.93840720310176
O            4.07823982192482       -3.54172493459690        5.85742253030393
H            4.78866664422275       -3.80132508967103        5.26320765702279
H            3.28941506890657       -4.01890478327737        5.57948413216784
O           -4.73618411167840        3.53569574212495        5.06224252932572
H           -4.55864507820573        4.33615963941416        4.55814690358929
H           -5.56312569990395        3.17059411773740        4.73425987970393
O            7.36135112986640        4.74835559982949        2.84149297969559
H            8.24803186260110        4.44705770374580        2.59391423571094
H            7.37937153179633        4.84845466239739        3.80668064198671
O            0.87038629340396       -1.20037136978373        2.66757560028150
H            0.66023356756229       -0.45955120792720        3.25749487056394
H            0.21306098459991       -1.87473748030727        2.85287301600620
O           -2.69940504984503        8.33301248288983        2.11986715578436
H           -1.98888507400158        8.76462428800735        1.63682628338960
H           -3.29526341850097        7.95598227505602        1.46487748331598
O            7.93419324209954       -1.49189092754035        2.31891800929048
H            8.01694017632389       -1.17012393941041        3.22949651032866
H            8.03068664483458       -0.71548338864166        1.75867132107623
O           -2.68647941493610        0.57784812578305        0.75944489033973
H           -3.44691020495153        1.01620283835141        1.14433676137840
H           -2.78059439375184        0.62842460040101       -0.21315588832038
O            3.47665711304371        8.70017904337271       -1.10517054651107
H            3.96263461328499        8.78448682296609       -1.93158371606893
H            3.44289041081235        9.57431446308781       -0.70581170379770
O            3.16746172338198       -0.75650163713611        0.97776189372113
H            3.23557369127210       -0.98991491114590        1.90674206417459
H            3.67419309387973       -1.40596024588063        0.48770030238063
O           -6.66126717164340        4.58645682606177        0.46292054112277
H           -6.33860223201727        4.92724177689140       -0.37691842443313
H           -7.13267301088838        5.31741761063953        0.88616105391492
O            7.01256055897658        2.11521117030827       -2.77651709049627
H            7.56098806647079        1.32992620155957       -2.93413806975888
H            7.16230473306814        2.36791353622572       -1.86079834124548
O           -0.87505847038766       -3.14093311043790       -1.63298889298230
H           -1.16178690528808       -3.58343689924131       -2.43135074051852
H           -0.72597536339738       -2.19676460014783       -1.84931533328204
O           -1.16597708225377        8.44694276539937       -3.39659882799895
H           -0.70383389489818        9.28536762177519       -3.30927215366269
H           -0.49368302556896        7.76418464440811       -3.49246478482050
O            4.14838484240847       -2.16955553398698       -4.86634307677555
H            3.27397889680406       -2.56586918139975       -4.79009721428952
H            4.04722815213450       -1.22677990110558       -4.70013541194479
O           -2.76621016862690        0.61572397386324       -1.95145958703125
H           -3.39644845266573        0.09560194982079       -2.45431402611893
H           -2.71052002456548        1.48573337434692       -2.38157768280767
O            2.65229835118648        4.26810664414393       -4.84581047496760
H            3.19247843094882        4.65019658008863       -4.14826268074885
H            2.99510442612525        3.38406718071200       -5.01364600291385
O           -0.07106014918577        0.18584625445368       -7.04981422874135
H            0.70380183172807        0.25771691090171       -7.62909351269855
H           -0.68116912584490        0.87171241670400       -7.33505961851844
O            2.12831994804372        2.61363682451322        4.57145780819647
H            2.81642973333541        2.31120199063380        5.16846177852064
H            2.55389160892799        2.93957888835553        3.76344348084418
O           -1.48530196791837       -1.69975178413742        7.65466958093764
H           -0.57139915668225       -1.95987037268334        7.49732143483861
H           -1.46491459374345       -0.93234709273823        8.23331411566491
O            2.34682347264491        6.33102528001040        7.94311671412711
H            1.68652251018154        6.46120498437591        7.23991516454557
H            1.85088474400241        6.28462467417290        8.76502718373188
O            4.05544446926176       -1.39564358586659        7.72674672169774
H            4.21539533813988       -1.87320971407868        8.54410929191825
H            4.05196722574191       -2.06669140876473        7.02279490304574
O           -3.75377471640761        3.17442678515644        7.71659202552302
H           -4.05867535725958        3.24446303751361        6.79579133226624
H           -4.27826658685949        3.80282216873044        8.21899585309374
O            7.29664005725809        5.15476510160486        5.70618388629251
H            7.76582772183011        5.90788438694136        6.07662036064516
H            6.43798347824913        5.11562510670447        6.14073533195876
O           -0.72973260564555       -6.26345982007492        5.08454672051981
H           -1.21092162619796       -6.30081075215273        5.91515790163476
H           -1.35028888855639       -5.95439179924495        4.41530844136475
O           -5.27986716618332        8.67512161272793        6.32436151274814
H           -4.35628473910018        8.52684492159349        6.55239321402401
H           -5.31838285598486        9.50660317601192        5.84256748735948
O            8.07756624301516       -0.30382797301843        4.92098645283917
H            8.29624193863937       -0.74326154644813        5.74699356911792
H            7.48994652840392        0.42866423162889        5.13581062032483
O           -6.97592122988175       -1.96386970520516        2.02316134813018
H           -6.24994035235888       -2.57961337223014        1.87220074944862
H           -7.43225960050414       -2.26031738493508        2.81425263655368
O            4.91352770913496        9.67342926169618        4.19565327846383
H            5.13644752997425        8.93621337561235        3.61796505746000
H            4.58718325422077        9.29531490666323        5.01860935038410
O            3.84354885990711       -7.28318775512620        2.20804736041970
H            4.14955770435281       -8.03455382418425        1.69378342605811
H            2.92964959345192       -7.46088093318226        2.45295322632102
O           -7.87845045903540        6.94569382743474        1.60626937385617
H           -7.77788981788232        7.23263238347516        2.51928684776195
H           -8.21378757119517        7.69575779911268        1.10671736878090
O           10.09278631753855        3.89622122903163        2.34331373964144
H           10.46781119434165        3.11424143376877        2.76126597632743
H           10.81625040047217        4.50897524899122        2.18330751873556
O           -3.91033148115995       -6.53417595423809        0.51893617987549
H           -3.06299357911515       -6.88657138218893        0.22812380962188
H           -4.36211209797881       -6.20798694551733       -0.26539483795017
O            0.77082514483516       12.58915113369502        1.83955177558163
H            1.26071288333342       12.10329060769871        2.51114120425708
H            0.71621912443594       13.50230413610264        2.13578386608658
O            6.62600598710682       -5.24353915681931       -1.55817401821518
H            7.00768320058181       -5.12221641707686       -0.68363961427713
H            5.68894532748001       -5.02901575092798       -1.48537812804298
O           -7.97712281434429        0.93705791016350       -2.69243915620754
H           -8.64862969536571        1.62378110172002       -2.70680445610714
H           -7.90217756419474        0.63598807555577       -1.78029913181304
O            7.33810866200008        7.17632376727695       -4.82250904857493
H            7.42457652380877        6.55398081681267       -4.09272383065884
H            8.21891190281478        7.31149130445629       -5.18351867398712
O            1.03232767855913       -7.80755158649934       -1.92624047287699
H            1.80629121853028       -7.44576229720695       -2.37010362571796
H            0.58829321251355       -8.38483149074912       -2.55213368515951
O           -4.00589714370497        8.09929767602899       -3.16074773780197
H           -3.03740044854979        8.15781900698752       -3.19238700955753
H           -4.33361209266071        8.81817753411531       -3.70717628431210
O            8.58080967818371       -0.24037912212216       -3.16070895411413
H            8.27813707618452       -1.08031748443264       -2.79882211019859
H            9.04486644945392       -0.43879458595592       -3.97832930456228
O           -5.57659369151701       -3.77812305621594       -4.02190993223235
H           -5.18706967606451       -3.48841055837649       -4.85307800166647
H           -6.40960135236764       -3.30871378240782       -3.91945407561381
O            2.62196616690400        9.42458980157387       -6.63834853860606
H            3.14848302930859        8.62224286659589       -6.55915400339302
H            3.16014311390197       10.06983860643580       -7.10491419743799
O            6.11864656113752       -3.06897159545725       -6.65031086737677
H            6.49447056241645       -3.83163563096046       -6.20148016389059
H            5.42228735027830       -2.73174333579585       -6.05569606151421
O           -2.60038085441605        3.04090532840411       -3.22324063100186
H           -1.83095987075891        3.36016376398083       -3.70184425829679
H           -3.35958666482820        3.53741825756756       -3.53520030011230
O            6.73467638440809        2.44069574763670       -7.96234457278023
H            6.84517706802933        1.59218106540442       -7.52021187384592
H            7.02420178008209        3.11892595278529       -7.34424491418656
O           -1.05083764243967       -2.42716878109340       -6.75477560932775
H           -0.92217422590328       -2.75191236988454       -7.64855009174646
H           -0.71610041010132       -1.51072755426073       -6.75008011675492
O           -1.71503293615798        5.53728932701402       -7.77577668713429
H           -0.77108477530464        5.69782623722418       -7.67518785574293
H           -2.15900652377442        6.38067791414229       -7.64845448534443
O            2.08827013713746        0.48067335809767       -8.85229632483608
H            2.78400599612771       -0.16557570576729       -9.00630093065899
H            2.40341789267381        1.32580280784902       -9.18539938794557
