11
MnO4_2H2O_2minus.log	Energy: -1007011.3851665
Mn        -0.00005        0.61690        0.00355
O          0.00034       -0.81648        0.87173
O          0.00296        1.87078        1.04377
O         -1.34891        0.62751       -0.94882
O          1.34536        0.62507       -0.95358
O          2.48541       -1.78399       -0.00612
H          1.63680       -1.69937        0.48835
O         -2.48500       -1.78445       -0.00613
H         -2.36638       -0.96440       -0.53473
H         -1.63600       -1.70078        0.48769
H          2.36565       -0.96531       -0.53683
