95
MnO4_nowater_solvated_radius_4_solvated_radius_6.log	Energy: -2349989.6101552
Mn        -0.00666        0.07891       -0.04984
O         -1.59798       -0.01270       -0.14852
O          0.64928       -0.73388       -1.25795
O          0.47755       -0.54652        1.33753
O          0.44450        1.60874       -0.13043
O         -2.82627       -2.34097       -1.53105
H         -3.64685       -2.08199       -1.79484
H         -2.73799       -3.22843       -1.65195
O          0.74786       -2.02768       -3.36541
H          0.88286       -2.91696       -3.39633
H          0.80882       -1.68551       -4.19559
O         -3.36182        1.34831       -1.81947
H         -3.39768        1.84795       -2.56718
H         -4.19734        1.17834       -1.53136
O         -0.39611       -3.84939        0.59572
H         -1.07335       -4.23754        1.04369
H          0.17998       -4.48148        0.31540
O          1.35865        1.59755       -3.48927
H          2.06028        1.28008       -3.95502
H          1.01161        2.30944       -3.91680
O         -3.51772        0.27625        1.85635
H         -4.12024        0.93893        1.76792
H         -3.82706       -0.33517        2.43984
O          3.16372       -2.35747       -0.16259
H          3.26726       -3.09866        0.33734
H          3.88357       -2.24906       -0.69180
O         -0.55282        3.94410       -0.92279
H         -0.02271        4.43544       -1.45904
H         -1.22478        4.45660       -0.61326
O         -0.44063       -1.40465        3.63943
H         -1.07520       -1.15690        4.22759
H          0.08123       -2.03771        4.00942
O          3.74631        1.42418       -0.37453
H          4.48535        0.95997       -0.15467
H          3.98198        2.23777       -0.67871
O         -0.63982        2.98315        2.62682
H         -0.51499        3.86209        2.47891
H         -0.92910        2.85848        3.46990
O          2.50906        0.50152        3.03115
H          2.27872        0.45526        3.89995
H          3.39278        0.65753        2.96254
O         -4.07524       -3.53479       -2.63313
H         -4.88099       -3.26855       -2.93291
H         -3.97214       -4.41500       -2.79002
O          0.30026       -3.23739       -5.03009
H          0.36474       -4.13434       -5.06630
H          0.29070       -2.90290       -5.86557
O         -4.98885        0.96910       -3.21471
H         -5.01944        1.38683       -4.01130
H         -5.81911        0.71722       -2.97548
O         -1.28133       -5.85025       -0.20819
H         -2.01746       -6.23571        0.13755
H         -0.76412       -6.47965       -0.59074
O          0.97361        1.23531       -5.78525
H          1.58371        0.82661       -6.30558
H          0.53503        1.85597       -6.26736
O         -5.83500       -0.63283        1.32189
H         -6.48527       -0.05153        1.09998
H         -6.19209       -1.32563        1.77191
O          3.47751       -4.56563       -1.68126
H          3.47188       -5.38665       -1.31262
H          4.08819       -4.53705       -2.34176
O         -2.13330        4.67574       -3.12015
H         -1.71547        5.06898       -3.81354
H         -2.91755        5.09014       -2.96776
O         -2.29381       -3.94317        3.90047
H         -3.06914       -3.84510        4.34684
H         -1.91270       -4.72591        4.12868
O          4.88990        0.54511       -3.40697
H          5.56638       -0.04757       -3.44028
H          5.06301        1.23023       -3.96432
O         -4.32817        3.70571        1.94451
H         -4.49434        4.52735        1.61698
H         -4.90845        3.52374        2.60797
O          3.19315       -4.13149        2.92563
H          2.91403       -4.59126        3.64722
H          4.02809       -4.38900        2.70982
O          2.32423        5.17685       -1.95377
H          3.14133        5.27139       -2.31902
H          1.91249        5.97672       -1.92758
O         -2.23190        0.37932        5.56846
H         -2.77273        1.03240        5.87008
H         -2.07457       -0.21003        6.23021
O          5.88491       -0.15860        1.07163
H          6.29623       -0.73676        1.62530
H          6.49547        0.39017        0.70276
O         -0.04336        5.55358        2.30245
H          0.45035        6.24315        2.00121
H         -0.54163        5.82364        3.00159
O          2.31818       -0.18974        5.52771
H          1.88849        0.04701        6.28224
H          3.15218       -0.46127        5.72949
O          4.09066        3.49293        2.65106
H          4.88207        3.20981        2.97279
H          4.01046        4.37889        2.78758
