52
deferipronate_ox_low_spin.log	Energy: -1599631.6299364
C          1.20794        3.64635       -1.36642
C          0.93241        2.28605       -0.71834
C          1.61722        1.75690        0.55490
O          0.97759        0.67109        1.05245
C          2.74721        2.24174        1.21668
C          3.70054        3.32238        0.94670
N          3.67432        4.15889       -0.08727
C          4.82611        5.14494       -0.11070
O          0.02237        1.51093       -1.19806
H          1.04277        3.58005       -2.45218
H          0.49008        4.37217       -0.94449
H          2.24529        3.96783       -1.08723
H          3.00087        1.65201        2.10893
H          4.51042        3.38055        1.70495
H          4.41035        6.17026       -0.10234
H          5.52778        5.03149        0.73806
H          5.38095        5.01318       -1.05887
Fe        -0.25083       -0.21606        0.00762
C          2.75063       -2.64320       -0.77965
C          1.22160       -2.26762       -0.81648
C          0.59831       -2.59794        0.55191
O         -0.21621       -1.55293        0.96331
C          1.07876       -3.65264        1.35840
C          2.17745       -4.38896        0.91078
N          2.86858       -4.07837       -0.30935
C          4.27267       -4.60714       -0.40877
O          0.97773       -0.84709       -0.99173
H          3.19963       -2.57133       -1.78768
H          3.28450       -1.94498       -0.09824
H          0.73656       -2.85256       -1.63734
H          0.60602       -3.89492        2.31635
H          2.53620       -5.28292        1.43709
H          4.98320       -4.04578        0.23295
H          4.27757       -5.66819       -0.10635
H          4.60793       -4.53137       -1.45831
C         -3.91332       -0.94879       -1.60144
C         -2.78165       -0.41304       -0.73478
C         -2.80674        0.43953        0.40284
O         -1.48995        0.66766        0.83859
C         -3.84561        1.08510        1.14176
C         -5.27453        1.07019        0.96928
N         -5.93035        0.39782       -0.00382
C         -7.43769        0.56732        0.07523
O         -1.48325       -0.73452       -1.07136
H         -3.79199       -0.60890       -2.64385
H         -3.91063       -2.05190       -1.59764
H         -4.86242       -0.55466       -1.16733
H         -3.47711        1.69223        1.98060
H         -5.82913        1.67261        1.71821
H         -7.89770       -0.43279        0.18778
H         -7.77790        1.21476        0.90640
H         -7.79350        0.99424       -0.88163
