%chk=catecholate_ox_lowspin.chk
#p uB3LYP empiricaldispersion=gd3 opt=(cartesian,loose,maxcycles=2000,calcfc) scf=(maxcycles=500,xqc,maxconventional=50) cep-31  

catecholate ox low-spin state

-3 2
 C                 -2.26489678   -0.82113525    0.05667380
 C                 -2.82311649    0.37431286    0.45427894
 C                 -2.00012236    1.46210331    0.85332623
 C                 -0.62106407    1.29752488    0.74867951
 C                 -0.02825898   -0.00076150    0.31295197
 C                 -0.87915959   -1.05167319   -0.03424944
 O                  1.25654680   -0.00197778    0.32674325
 O                  0.27553092    2.21108476    1.01659906
 H                 -2.91714355   -1.62375439   -0.21742314
 H                 -3.91045971    0.46527630    0.46143604
 H                 -2.41180533    2.37265453    1.19774958
 H                 -0.50160168   -1.99622106   -0.33766354
 Fe                 1.96138036    1.69829369    0.51043553
 C                  3.43475168    2.72258703    5.20074175
 C                  3.53825627    4.00661210    4.65941554
 C                  3.29347538    4.26506751    3.29907421
 C                  2.97019831    3.20066771    2.45911330
 C                  2.85926911    1.83748648    3.02752633
 C                  3.11906025    1.59871080    4.37523778
 O                  2.53078447    0.98033491    2.11521869
 O                  2.71531880    3.26026057    1.16912929
 H                  3.60916639    2.60584878    6.24455015
 H                  3.80755882    4.84681693    5.29094437
 H                  3.34006248    5.27457697    2.90889504
 H                  3.09491074    0.60787167    4.77320467
 C                  3.96974238    1.38690260   -4.01766985
 C                  2.87307456    2.21382993   -4.33109716
 C                  1.90633699    2.60086902   -3.34363858
 C                  2.08335729    2.19061199   -2.04824038
 C                  3.32804851    1.36350844   -1.70282679
 C                  4.22855272    0.95786536   -2.70132105
 O                  3.39949051    1.08293607   -0.46560252
 O                  1.28390425    2.47111942   -1.03587856
 H                  4.64898271    1.06079693   -4.79564501
 H                  2.73625118    2.54441314   -5.33379804
 H                  1.07804769    3.21668741   -3.61368253
 H                  5.08350977    0.31535916   -2.47749140
 H                  0.07409372    3.05341786    1.43072223
 H                  1.79062456   -0.79602970    0.25030705
 H                  0.47951521    2.99224313   -1.09054432
 H                  2.89999523    4.03041407    0.62658141
 H                  2.57974472    0.03297913    2.26259551
 H                  4.13102674    0.59779322   -0.07689805



--link1--
%chk=catecholate_ox_lowspin.chk
#p ub3lyp geom=allcheck guess=read chkbasis empiricaldispersion=gd3 scf=(maxcycles=500,xqc,maxconventional=50) scrf=(cpcm,solvent=water)


