  15
  -31.922874640000000
 C          2.4992262381        0.6071630141       -0.0003986255
 C          1.1499456247       -0.0118256209        0.0008237357
 C         -0.0558130311        0.6714319548       -0.0000218874
 C         -1.3282396257       -0.0685947119       -0.0011235530
 O         -2.2980177927        0.7295932718       -0.0006332246
 C         -1.2734293638       -1.4871003980       -0.0002915369
 C         -0.0398093242       -2.0568937317        0.0004496226
 O          1.0904802301       -1.3478858140        0.0008510143
 O         -0.2872012668        1.9341857079        0.0018410051
 H          3.0573957855        0.2752420662        0.8783636115
 H          3.0566161857        0.2748687672       -0.8794895883
 H          2.4147411931        1.6920976469       -0.0005586588
 H         -2.1836420510       -2.0737688081       -0.0008756386
 H          0.1438135546       -3.1263417098        0.0007377170
 Fe        -1.9448715503        2.4796778079        0.0002286340
  15
  -31.922622310000001
 C          2.6484966930        0.5048654647       -0.0001569614
 C          1.2610987064       -0.0115371160        0.0002312826
 C          0.0940813167        0.7512999157        0.0000375131
 C         -1.2318659429        0.1079369529       -0.0003624435
 O         -2.1711314458        0.9324229501       -0.0003851705
 C         -1.2700459369       -1.3220596992       -0.0000414784
 C         -0.0795616750       -1.9671156228        0.0001701881
 O          1.1062023926       -1.3360880782        0.0002506507
 O         -0.0092353087        2.0307874019        0.0009362184
 H          3.1825239187        0.1276482505        0.8761804501
 H          3.1821879030        0.1277126013       -0.8767200742
 H          2.6489135079        1.5933293913       -0.0001156783
 H         -2.2139212352       -1.8517143809       -0.0002233517
 H          0.0394768204       -3.0458765167        0.0002558446
 Fe        -1.5486844944        2.7365657413       -0.0001698940
  15
  -31.921730860000000
 C          2.5086965224        0.5454175780       -0.0157152908
 C          1.1654856431       -0.0768378309       -0.0326363535
 C         -0.0384996405        0.6529002358       -0.0923141241
 C         -1.3301122742       -0.0765346143        0.0279015519
 O         -2.3921382328        0.5985742906       -0.0570852169
 C         -1.2609130334       -1.5018835649        0.1925377377
 C         -0.0430131648       -2.0863167180        0.2388226114
 O          1.0991646446       -1.3872800218        0.1299732495
 O         -0.0805357568        1.9291901137       -0.2313920996
 H          3.2608222609       -0.1597104526        0.3349751255
 H          2.7614699750        0.8675395922       -1.0316290101
 H          2.4964364950        1.4454431844        0.6023022289
 H         -2.1765619039       -2.0659113512        0.3194236503
 H          0.1389740904       -3.1483482823        0.3631411209
 Fe        -1.6143233035        1.8511031949       -1.0010418945
  15
  -31.921730860000000
 C          2.5086918665        0.5454204334        0.0157017798
 C          1.1654850624       -0.0768444042        0.0326082197
 C         -0.0384989371        0.6528979292        0.0923170494
 C         -1.3301147009       -0.0765271147       -0.0278974632
 O         -2.3921451579        0.5985707900        0.0571148339
 C         -1.2609165953       -1.5018754232       -0.1925527804
 C         -0.0430188074       -2.0863121544       -0.2388718824
 O          1.0991642335       -1.3872793385       -0.1300314348
 O         -0.0805144543        1.9291821352        0.2314317648
 H          2.7614251774        0.8675970901        1.0316102725
 H          3.2608368174       -0.1597166692       -0.3349347168
 H          2.4964445183        1.4454184577       -0.6023559485
 H         -2.1765669246       -2.0659023177       -0.3194308792
 H          0.1389648335       -3.1483409504       -0.3632152508
 Fe        -1.6142992814        1.8510562291        1.0011045415
  15
  -31.889737180000001
 C          2.5143389461        0.5547171391       -0.0000175585
 C          1.1452116720       -0.0354331223        0.0000606996
 C         -0.0147639258        0.7419643688       -0.0001231207
 C         -1.3958456209        0.0748099223       -0.0001966910
 O         -2.4054034616        0.7096750196       -0.0004366802
 C         -1.2835809184       -1.3859721602        0.0000397325
 C         -0.1004980620       -2.0151935949        0.0001963563
 O          1.0825178011       -1.3559203688        0.0001830233
 O          0.0529019799        2.0064108646       -0.0000388838
 H          3.0715874950        0.2278024369        0.8806241337
 H          3.0708368375        0.2291095674       -0.8816292511
 H          2.4593163657        1.6707695186        0.0008327757
 H         -2.2112170743       -1.9449728668        0.0000529660
 H          0.0410106257       -3.0907570942        0.0003456309
 Fe         1.2699777478        3.0997285837        0.0000164400
  15
  -31.889473639999999
 C          2.5102846148        0.3553437464       -0.0412819299
 C          1.1306243273       -0.2048343885        0.0259163969
 C          0.0086733421        0.5515631355       -0.3253398930
 C         -1.3954206042       -0.0529167208       -0.1951388716
 O         -2.3770794773        0.5583090098       -0.4885135902
 C         -1.3443934980       -1.4270098444        0.3118402588
 C         -0.1929791011       -2.0434686651        0.6102489705
 O          1.0126683449       -1.4421909383        0.4692466115
 O          0.1391192982        1.7327567842       -0.7610555320
 H          3.2410557521       -0.4136793010       -0.2869965926
 H          2.5605202047        1.1596132569       -0.8125216332
 H          2.7811677022        0.7811504197        0.9297318786
 H         -2.2987839882       -1.9245127345        0.4349995940
 H         -0.0948007887       -3.0554689606        0.9854507182
 Fe         1.4099286973        2.6953727488       -1.1360882410
  15
  -31.889345310000000
 C          2.5054575838        0.3638665044        0.0346279517
 C          1.1296777210       -0.2076975122       -0.0226718453
 C          0.0073443688        0.5515826634        0.3213556678
 C         -1.3975656861       -0.0454826115        0.1740238419
 O         -2.3809572563        0.5788863095        0.4312164190
 C         -1.3444392445       -1.4304421956       -0.3039962835
 C         -0.1918602145       -2.0502294261       -0.5921991214
 O          1.0138086874       -1.4466058690       -0.4594894237
 O          0.1432809704        1.7348597517        0.7489579309
 H          2.5777080347        1.1067742842        0.8650714011
 H          3.2565644684       -0.4109305536        0.1889415243
 H          2.7284632657        0.8703539699       -0.9113602324
 H         -2.2962051747       -1.9324953961       -0.4245594808
 H         -0.0936397132       -3.0687403462       -0.9507285092
 Fe         1.4316621312        2.6553678455        1.1814334294
  15
  -31.876965869999999
 C          2.6680384848        0.6303943225       -0.2964943501
 C          1.3722658211       -0.0676713542       -0.1893017782
 C          0.2203749185        0.6034727949        0.3828219384
 C         -1.0348098411       -0.2388235539        0.4468387532
 O         -2.0655398117        0.2839511813        0.9304128612
 C         -0.9668886491       -1.5822924589       -0.0510820352
 C          0.1895403864       -2.0604952105       -0.5610009880
 O          1.3006814869       -1.3033954925       -0.6145815094
 O          0.2803127095        1.7471538534        0.7765372677
 H          2.9915850588        0.9300951849        0.7067381722
 H          3.4229015989        0.0047039432       -0.7679379961
 H          2.5332743486        1.5641467149       -0.8512038241
 H         -1.8598970605       -2.1980747842       -0.0062370955
 H          0.3455323304       -3.0550704818       -0.9625037152
 Fe        -3.6597738608        0.0820800672        1.3375854777
  15
  -31.876932709999998
 C          2.6691038566        0.6290872809        0.2940387607
 C          1.3735210283       -0.0692642879        0.1910804139
 C          0.2165199335        0.6059343681       -0.3699729176
 C         -1.0397181743       -0.2351930882       -0.4319109567
 O         -2.0659818686        0.2898936826       -0.9240887654
 C         -0.9722748916       -1.5793577496        0.0637147239
 C          0.1884580451       -2.0609299410        0.5608983883
 O          1.3030458872       -1.3077870142        0.6070275931
 O          0.2781795130        1.7481218953       -0.7664650118
 H          3.4277105870        0.0033972874        0.7603784440
 H          2.9866982193        0.9316643159       -0.7107061850
 H          2.5353951307        1.5615057548        0.8514081990
 H         -1.8667085446       -2.1928646696        0.0266466894
 H          0.3490754310       -3.0586089008        0.9541440599
 Fe        -3.6446079599        0.0711824860       -1.3857182323
  15
  -31.876647009999999
 C          2.5973306198        0.5839357194        0.0000022851
 C          1.2497492395       -0.0208456867        0.0000361514
 C          0.0524316352        0.7997001593       -0.0000227174
 C         -1.2452892733        0.0232993505       -0.0000398712
 O         -2.3178972631        0.6720931086       -0.0001180183
 C         -1.1733071323       -1.4095329656        0.0000263240
 C          0.0278446802       -2.0283044585        0.0000916210
 O          1.1772433624       -1.3297824955        0.0000923378
 O          0.1027733358        2.0097123016       -0.0000533754
 H          3.1579703226        0.2398211605        0.8741282279
 H          3.1575637776        0.2405106041       -0.8746639574
 H          2.5265395583        1.6708106001        0.0003912290
 H         -2.1000978945       -1.9749778460        0.0000181744
 H          0.1917294275       -3.0994683514        0.0001439593
 Fe        -3.9748556533        0.5786389577       -0.0001387220
  15
  -31.834417680000001
 C          2.5434345971        0.5216890630        0.0244482772
 C          1.1618728784        0.0060347706       -0.1652646607
 C         -0.0121429566        0.8827458860       -0.1508415323
 C         -1.3639950018        0.1457051737       -0.0150772084
 O         -2.4206882146        0.6918707793       -0.0876508516
 C         -1.1929750720       -1.3149520353        0.1985792323
 C         -0.0867045648       -1.9846354428       -0.2508560468
 O          1.0834395716       -1.3163128721       -0.4362390165
 O          0.1094321946        2.0789304452       -0.1217218827
 H          2.9372707924        0.1342488941        0.9848697295
 H          3.2093517350        0.1513339772       -0.7577174429
 H          2.5453289998        1.6109389013        0.0572314855
 H         -2.0922681244       -1.8762959345        0.4450536761
 H          0.0040089278       -3.0515773160       -0.4565913688
 Fe         0.7300321729       -1.1364969550        1.3396921355
