  15
  -31.922697379999999
 C          2.5087811959        0.5988711283       -0.0001572714
 C          1.1467498168        0.0041099844        0.0003115071
 C         -0.0566901237        0.6852685087        0.0000066433
 C         -1.3220404655       -0.0664228899       -0.0003278157
 O         -2.3011298872        0.7268118484       -0.0001658319
 C         -1.2700572922       -1.4834911512       -0.0000803214
 C         -0.0351223553       -2.0503267117        0.0001412759
 O          1.0892816861       -1.3354177854        0.0002938379
 O         -0.3166566044        1.9419831192        0.0007096716
 H          3.0578270182        0.2518151423        0.8788260778
 H          3.0575255866        0.2517232515       -0.8792821653
 H          2.4510945006        1.6864635011       -0.0001966484
 H         -2.1805038992       -2.0663775232       -0.0002732404
 H          0.1542643057       -3.1189187812        0.0001869942
 Fe        -1.9821286762        2.4657578011       -0.0000900863
  15
  -31.922516770000001
 C          2.6551054606        0.5000865175       -0.0000850763
 C          1.2627292402       -0.0010474918        0.0001188373
 C          0.0927735603        0.7612308846        0.0000418879
 C         -1.2301204561        0.1067404656       -0.0002008613
 O         -2.1762296534        0.9272977691       -0.0002309219
 C         -1.2676936801       -1.3215780006        0.0000224350
 C         -0.0754106882       -1.9634484663        0.0000792623
 O          1.1049680238       -1.3254188091        0.0000923004
 O         -0.0306945836        2.0357903549        0.0005421516
 H          3.1821613915        0.1130653687        0.8759790858
 H          3.1819869723        0.1132111702       -0.8763175747
 H          2.6737050622        1.5883857617       -0.0000033232
 H         -2.2137186381       -1.8477172231       -0.0000331110
 H          0.0456987143       -3.0419621798        0.0000916529
 Fe        -1.5667255060        2.7335411344       -0.0002096491
  15
  -31.921607049999999
 C          2.5076641330        0.5467364806       -0.0138900176
 C          1.1681968465       -0.0811369943       -0.0326105385
 C         -0.0365806462        0.6509781957       -0.0826877995
 C         -1.3313776473       -0.0721356116        0.0404774740
 O         -2.3920172963        0.6017275174       -0.0519017597
 C         -1.2604488567       -1.4984044539        0.1999128382
 C         -0.0451801164       -2.0876420090        0.2334774235
 O          1.1004145566       -1.3906914273        0.1308726254
 O         -0.0740448047        1.9250729438       -0.2562194318
 H          3.2618683134       -0.1504609156        0.3382117810
 H          2.7598534622        0.8702769171       -1.0254094787
 H          2.4906046903        1.4456328412        0.6041177432
 H         -2.1767715639       -2.0641095519        0.3258979049
 H          0.1353761924       -3.1537457549        0.3435538387
 Fe        -1.6126049414        1.8452471763       -1.0065393166
  15
  -31.921606940000000
 C          2.5076502543        0.5467473323        0.0138948226
 C          1.1682122376       -0.0811690417        0.0325306465
 C         -0.0365671906        0.6509704566        0.0826198945
 C         -1.3313653967       -0.0721166489       -0.0404797040
 O         -2.3920011010        0.6017588017        0.0518870293
 C         -1.2604576705       -1.4984050928       -0.1998829757
 C         -0.0452092721       -2.0876426835       -0.2335491022
 O          1.1004151514       -1.3907072433       -0.1310066874
 O         -0.0739929732        1.9250652698        0.2562062933
 H          2.7597199557        0.8703136865        1.0254307581
 H          3.2619283876       -0.1503990617       -0.3381268550
 H          2.4905953830        1.4456459422       -0.6041224703
 H         -2.1767764640       -2.0641384535       -0.3257669808
 H          0.1353153165       -3.1537462406       -0.3436688830
 Fe        -1.6125289678        1.8451676692        1.0066323198
  15
  -31.889737180000001
 C          2.5143389461        0.5547171391       -0.0000175585
 C          1.1452116720       -0.0354331223        0.0000606996
 C         -0.0147639258        0.7419643688       -0.0001231207
 C         -1.3958456209        0.0748099223       -0.0001966910
 O         -2.4054034616        0.7096750196       -0.0004366802
 C         -1.2835809184       -1.3859721602        0.0000397325
 C         -0.1004980620       -2.0151935949        0.0001963563
 O          1.0825178011       -1.3559203688        0.0001830233
 O          0.0529019799        2.0064108646       -0.0000388838
 H          3.0715874950        0.2278024369        0.8806241337
 H          3.0708368375        0.2291095674       -0.8816292511
 H          2.4593163657        1.6707695186        0.0008327757
 H         -2.2112170743       -1.9449728668        0.0000529660
 H          0.0410106257       -3.0907570942        0.0003456309
 Fe         1.2699777478        3.0997285837        0.0000164400
  15
  -31.888907610000000
 C          2.5043487304        0.3719394374        0.0101053413
 C          1.1311612030       -0.2062122284       -0.0500579220
 C          0.0090856168        0.5644226642        0.2768238491
 C         -1.3963587688       -0.0337615443        0.1334444747
 O         -2.3810673828        0.5848562445        0.3981537760
 C         -1.3433417637       -1.4251289604       -0.3123499478
 C         -0.1899338557       -2.0628816734       -0.5653606765
 O          1.0166131038       -1.4626703223       -0.4460104633
 O          0.1615729876        1.7326677698        0.7412181177
 H          2.5672031386        1.0960363111        0.8625565069
 H          3.2609980110       -0.3966207932        0.1431905179
 H          2.7192366924        0.9167646002       -0.9179402507
 H         -2.3065335477       -1.9191534494       -0.4121784714
 H         -0.0942988838       -3.0991717325       -0.8762480671
 Fe         1.4306146612        2.6079810952        1.2952764850
  15
  -31.881430620000000
 C          2.5075754362        0.4835009606        0.1011620241
 C          1.1322413920       -0.1040931255        0.0306889983
 C         -0.0324345784        0.6755691295       -0.1511527125
 C         -1.4269436360        0.0550531150        0.0531707835
 O         -2.4187224081        0.7194069855        0.0566940536
 C         -1.3329513078       -1.3968826393        0.2399744329
 C         -0.1625100743       -2.0438310416        0.3091650975
 O          1.0364181079       -1.4091830518        0.2312147892
 O          0.1489126784        1.8515764424       -0.5775776293
 H          3.2461726575       -0.2734073399        0.3721758120
 H          2.8057871820        0.9114960466       -0.9087082667
 H          2.5398293924        1.3152116633        0.8157384458
 H         -2.2741069309       -1.9265839956        0.3446831534
 H         -0.0351525004       -3.1114815910        0.4567955554
 Fe         1.3564694155        1.5236759900       -1.6535263921
  15
  -31.875916719999999
 C          2.6060129711        0.5706811834        0.0000195197
 C          1.2491090405       -0.0128738508        0.0000106871
 C          0.0657628136        0.8279931638       -0.0000614652
 C         -1.2400012014        0.0708925805       -0.0000253801
 O         -2.3128180168        0.7223019524       -0.0000213516
 C         -1.1926440237       -1.3639522848        0.0000096852
 C         -0.0029629423       -2.0036045404        0.0000489000
 O          1.1569453145       -1.3217239009        0.0000594957
 O          0.1385257136        2.0369901542       -0.0001429480
 H          3.1615321746        0.2183991531        0.8742085647
 H          3.1612729967        0.2189305739       -0.8745547442
 H          2.5519362034        1.6587064179        0.0003145618
 H         -2.1365228389       -1.9069990174        0.0000137818
 H          0.1457678755       -3.0769102772        0.0000813584
 Fe        -3.9221873380        0.3167788502       -0.0000670172
  15
  -31.845849690000001
 C          2.4862341947        0.5794875880        0.1325763592
 C          1.1781301149       -0.0081310151       -0.2293906979
 C          0.0198775100        0.8404630232       -0.4733956408
 C         -1.1658999397        0.0977934997        0.1496593509
 O         -1.7128507542        0.3246315641        1.2305646214
 C         -1.3198770897       -1.2849962197       -0.3524232012
 C         -0.1448532859       -1.9813959511       -0.2728690065
 O          1.0116058118       -1.2960678515        0.0006225714
 O          0.0029542032        1.8985447984       -1.0317896471
 H          2.8158781335        0.2384825417        1.1167336448
 H          3.2314481729        0.2180574490       -0.5847229987
 H          2.4472115326        1.6667301822        0.0857846739
 H         -2.2903313802       -1.7270042902       -0.5726084840
 H          0.0447938822       -3.0252311684       -0.5097724004
 Fe        -0.8667231853       -1.2011894240        1.5916220335
  15
  -31.845766699999999
 C          2.4851531059        0.5784936553       -0.1319728585
 C          1.1759989805       -0.0060989236        0.2315646775
 C          0.0175499736        0.8431971512        0.4741853340
 C         -1.1673032263        0.0949482536       -0.1445345316
 O         -1.7091022865        0.3167669244       -1.2309588127
 C         -1.3225831615       -1.2875788995        0.3580164729
 C         -0.1467393949       -1.9817969177        0.2760188017
 O          1.0069475534       -1.2945069755       -0.0012953764
 O          0.0032689640        1.9088036044        1.0166299925
 H          3.2343901773        0.2031252413        0.5736733244
 H          2.8054896298        0.2497159438       -1.1237000501
 H          2.4514682141        1.6652457350       -0.0714824407
 H         -2.2948990550       -1.7277430124        0.5692070352
 H          0.0424293194       -3.0258003661        0.5093228193
 Fe        -0.8436526011       -1.1999899946       -1.5841991840
  15
  -31.833727260000000
 C          2.5413127205        0.5273048853        0.0004903328
 C          1.1654527719       -0.0074993657       -0.1849767411
 C         -0.0056458624        0.8635754945       -0.1267008947
 C         -1.3670788100        0.1446667165       -0.0184316249
 O         -2.4159578166        0.7078269820       -0.0843521865
 C         -1.2312742028       -1.3253048580        0.1457502774
 C         -0.1020680088       -1.9884779996       -0.2244472043
 O          1.0876469055       -1.3389343224       -0.3923827425
 O          0.1252730889        2.0571944629       -0.0397828742
 H          2.9324405729        0.1536839805        0.9706729393
 H          3.2210314174        0.1633141777       -0.7712342009
 H          2.5253406735        1.6157106408        0.0239663105
 H         -2.1425271287       -1.8845554436        0.3442812695
 H         -0.0111042122       -3.0584056137       -0.4111706563
 Fe         0.8325558262       -1.0868724025        1.3762325211
  15
  -31.813728279999999
 C          2.5396372566        0.5595799684        0.0107292899
 C          1.1403303309        0.0557328067        0.0881723202
 C         -0.0444828939        0.8998951014        0.1164776682
 C         -1.4035199809        0.1730993041       -0.0009565128
 O         -2.4248855220        0.7748471781       -0.1304917855
 C         -1.3178331475       -1.3062149651        0.0343689917
 C         -0.1522761350       -1.9485921726        0.0047235746
 O          1.0498117286       -1.2574953038       -0.0424507451
 O          0.0708491659        2.0986753359        0.1984686365
 H          3.0168808019        0.4751028866        0.9932512057
 H          3.1289432361       -0.0410533833       -0.7142195804
 H          2.5622338524        1.6086640762       -0.2839600778
 H         -2.2562426858       -1.8502529831        0.0428513544
 H          0.0066127428       -3.0260254437        0.0014696534
 Fe         2.4713269691       -2.1271098953       -0.5442762203
