19
Fe_2_O3LYP.log	Energy: -1080471.0889861
Fe         0.00015        0.00003        0.00009
O         -1.44188        0.06421        1.47805
H         -1.45962       -0.46557        2.29377
O         -1.07500       -1.46397       -0.98422
H         -0.83178       -1.89807       -1.82034
O         -1.01745        1.45640       -1.05428
H         -0.89690        2.41875       -0.97655
O          1.44126       -0.06204       -1.47874
H          2.22987       -0.63168       -1.49582
O          1.07536        1.46280        0.98599
H          0.83029        1.89832        1.82082
O          1.01734       -1.45750        1.05293
H          0.89397       -2.41954        0.97603
H          1.71073       -1.31320        1.72003
H         -1.92129       -1.85074       -0.69983
H         -2.23194        0.63133        1.49182
H          1.92376        1.84694        0.70448
H         -1.70855        1.31054       -1.72345
H          1.46047        0.47293       -2.29123
