19
Fe_2_M08-HX.log	Energy: -1080323.5111523
Fe        -0.00003        0.00002        0.00001
O          1.26488        1.27599        0.95998
H          1.79579        1.07479        1.74957
O         -1.53177        0.62309        1.18944
H         -2.45143        0.30859        1.15602
O         -0.45145        1.46065       -1.34600
H          0.01074        1.63409       -2.18393
O         -1.26506       -1.27598       -0.95976
H         -1.44870       -2.19866       -0.71325
O          1.53179       -0.62296       -1.18942
H          2.45130       -0.30773       -1.15647
O          0.45167       -1.46082        1.34572
H         -0.01042       -1.63473        2.18360
H          1.16912       -2.11286        1.26859
H         -1.47832        1.29040        1.89488
H          1.44811        2.19887        0.71392
H          1.47855       -1.29090       -1.89436
H         -1.16870        2.11293       -1.26915
H         -1.79570       -1.07500       -1.74958
