19
Fe_2_TPSSh.log	Energy: -1080452.8942047
Fe         0.00000       -0.00000       -0.00000
O         -0.80227       -1.68521       -0.82554
H         -1.56604       -2.19172       -0.48413
O          1.26200       -1.14893        1.11925
H          1.92990       -0.82580        1.75640
O          1.38951        0.07049       -1.49319
H          1.29832        0.53348       -2.34979
O          0.80225        1.68522        0.82554
H          0.49489        2.13741        1.63641
O         -1.26200        1.14892       -1.11926
H         -1.92993        0.82577       -1.75637
O         -1.38950       -0.07050        1.49320
H         -1.29828       -0.53348        2.34981
H         -2.27108        0.35283        1.48601
H          1.31144       -2.12567        1.11927
H         -0.49494       -2.13738       -1.63644
H         -1.31142        2.12568       -1.11931
H          2.27110       -0.35283       -1.48598
H          1.56604        2.19172        0.48415
