%chk=Fe_3_SPW91_3_6.chk
#p SPW91 6-31+G(2df,p) scf=(maxcycles=500,xqc,maxconventional=50) scrf=(cpcm,solvent=water)

Fe_3_SPW91_solvated_radius_4

3 6
Fe         0.00004        0.00006        0.00006
O         -1.26241       -0.63375       -1.37295
H         -1.28575       -1.53932       -1.77377
O          1.23919        0.59275       -1.41188
H          2.11939        1.02577       -1.27408
O         -0.86772        1.76841       -0.01850
H         -1.62811        2.05328        0.54888
O          1.26259        0.63351        1.37300
H          1.98929        0.10398        1.78866
O         -1.23998       -0.59292        1.41112
H         -2.11970       -1.02655        1.27215
O          0.86826       -1.76810        0.01911
H          1.62786       -2.05335       -0.54913
H          0.62437       -2.53411        0.59791
H          1.09571        0.51247       -2.38872
H         -1.98876       -0.10429       -1.78931
H         -1.09790       -0.51246        2.38815
H         -0.62267        2.53500       -0.59603
H          1.28578        1.53879        1.77448
O 1.7984094528212176 -4.368421052627475e-05 4.1249552631578945
H 2.6984094528212177 -4.368421052627475e-05 4.1249552631578945
H 1.5053981138097765 0.8509230338288589 4.1249552631578945
O -2.1947838788242375 -2.0106204323210863 3.3749552631578945
H -1.2947838788242376 -2.0106204323210863 3.3749552631578945
H -2.4877952178356786 -1.1596537142817012 3.3749552631578945
O 0.3195178413022378 3.641009166125884 2.624955263157894
H 1.2195178413022378 3.641009166125884 2.624955263157894
H 0.02650650229079682 4.491975884165269 2.624955263157894
O 2.4889542717446704 -3.246479482885428 1.8749552631578947
H 3.3889542717446703 -3.246479482885428 1.8749552631578947
H 2.1959429327332294 -2.3955127648460426 1.8749552631578947
O -4.290528664010132 0.7588855829471155 1.1249552631578947
H -3.3905286640101324 0.7588855829471155 1.1249552631578947
H -4.583540003021573 1.6098523009865007 1.1249552631578947
O 3.783664813606101 2.406831566330432 0.37495526315789496
H 4.683664813606101 2.406831566330432 0.37495526315789496
H 3.49065347459466 3.2577982843698168 0.37495526315789496
O -1.164183356437414 -4.330645932808942 -0.3750447368421051
H -0.264183356437414 -4.330645932808942 -0.3750447368421051
H -1.457194695448855 -3.4796792147695568 -0.3750447368421051
O -2.00824825314404 3.866663426259884 -1.1250447368421048
H -1.10824825314404 3.866663426259884 -1.1250447368421048
H -2.301259592155481 4.717630144299269 -1.1250447368421048
O 3.842517233358773 -1.403334809862192 -1.875044736842106
H 4.7425172333587735 -1.403334809862192 -1.875044736842106
H 3.549505894347332 -0.5523680918228069 -1.875044736842106
O -3.3785546331260385 -1.3946506258414109 -2.6250447368421046
H -2.4785546331260386 -1.3946506258414109 -2.6250447368421046
H -3.6715659721374796 -0.5436839078020257 -2.6250447368421046
O 1.2615376158024012 2.6958474097658747 -3.3750447368421055
H 2.161537615802401 2.6958474097658747 -3.3750447368421055
H 0.9685262767909602 3.54681412780526 -3.3750447368421055
O 0.5382157534002592 -1.716047571680495 -4.1250447368421055
H 1.438215753400259 -1.716047571680495 -4.1250447368421055
H 0.24520441438881818 -0.8650808536411099 -4.1250447368421055



