%chk=Fe_3_B97D_3_6.chk
#p B97D 6-31+G(2df,p) scf=(maxcycles=500,xqc,maxconventional=50) scrf=(cpcm,solvent=water)

Fe_3_B97D_solvated_radius_4

3 6
Fe         0.00006        0.00001        0.00006
O         -0.25300        1.73732       -1.08385
H          0.29990        2.03930       -1.83204
O          1.23579        1.00110        1.31441
H          1.68060        0.61857        2.09704
O         -1.63323        0.48768        1.16266
H         -2.56356        0.24256        0.98632
O          0.25335       -1.73672        1.08477
H          0.94814       -2.41082        0.94495
O         -1.23557       -1.00070       -1.31486
H         -1.67763       -0.61847       -2.09919
O          1.63252       -0.48869       -1.16325
H          2.56296       -0.24267       -0.98881
H          1.61848       -1.00884       -1.99146
H          1.48513        1.94583        1.26970
H         -0.94820        2.41100       -0.94409
H         -1.48742       -1.94471       -1.26898
H         -1.62012        1.00587        1.99212
H         -0.29876       -2.03763        1.83397
O 1.7984073475580595 -5.263157894537591e-07 4.124972105263158
H 2.6984073475580597 -5.263157894537591e-07 4.124972105263158
H 1.5053960085466185 0.8509661917235957 4.124972105263158
O -2.1947859840873956 -2.0105772744263497 3.374972105263158
H -1.2947859840873956 -2.0105772744263497 3.374972105263158
H -2.4877973230988366 -1.1596105563869645 3.374972105263158
O 0.3195157360390799 3.6410523240206207 2.6249721052631574
H 1.2195157360390798 3.6410523240206207 2.6249721052631574
H 0.026504397027638904 4.492019042060006 2.6249721052631574
O 2.4889521664815124 -3.2464363249906913 1.8749721052631578
H 3.3889521664815123 -3.2464363249906913 1.8749721052631578
H 2.1959408274700714 -2.3954696069513064 1.8749721052631578
O -4.29053076927329 0.7589287408418522 1.1249721052631578
H -3.39053076927329 0.7589287408418522 1.1249721052631578
H -4.583542108284731 1.6098954588812373 1.1249721052631578
O 3.783662708342943 2.4068747242251685 0.37497210526315816
H 4.683662708342943 2.4068747242251685 0.37497210526315816
H 3.490651369331502 3.257841442264554 0.37497210526315816
O -1.164185461700572 -4.330602774914205 -0.3750278947368419
H -0.264185461700572 -4.330602774914205 -0.3750278947368419
H -1.457196800712013 -3.4796360568748197 -0.3750278947368419
O -2.008250358407198 3.8667065841546204 -1.1250278947368417
H -1.108250358407198 3.8667065841546204 -1.1250278947368417
H -2.301261697418639 4.717673302194005 -1.1250278947368417
O 3.842515128095615 -1.4032916519674552 -1.8750278947368428
H 4.742515128095615 -1.4032916519674552 -1.8750278947368428
H 3.549503789084174 -0.55232493392807 -1.8750278947368428
O -3.3785567383891966 -1.394607467946674 -2.6250278947368413
H -2.4785567383891967 -1.394607467946674 -2.6250278947368413
H -3.6715680774006376 -0.5436407499072888 -2.6250278947368413
O 1.2615355105392432 2.6958905676606113 -3.375027894736842
H 2.161535510539243 2.6958905676606113 -3.375027894736842
H 0.9685241715278021 3.5468572856999963 -3.375027894736842
O 0.5382136481371013 -1.7160044137857582 -4.125027894736842
H 1.4382136481371013 -1.7160044137857582 -4.125027894736842
H 0.24520230912566027 -0.865037695746373 -4.125027894736842



