%chk=Fe_3_TPSSh_3_6.chk
#p TPSSH 6-31+G(2df,p) scf=(maxcycles=500,xqc,maxconventional=50) scrf=(cpcm,solvent=water)

Fe_3_TPSSh_solvated_radius_4

3 6
Fe        -0.00004       -0.00002        0.00050
O          0.42888       -1.68814        1.06378
H          0.91529       -1.73350        1.91101
O          1.76072       -0.18667       -1.01501
H          2.09614        0.41477       -1.70944
O         -0.93567       -1.13535       -1.41427
H         -1.88046       -1.38773       -1.42503
O         -0.43471        1.68572       -1.06515
H         -0.20225        2.60375       -0.82094
O         -1.76004        0.19360        1.01515
H         -2.09200       -0.39628        1.72111
O          0.94094        1.13092        1.41456
H          1.88783        1.37530        1.42532
H          0.53071        1.52902        2.20809
H          2.42705       -0.89290       -0.89795
H          0.18538       -2.60369        0.82103
H         -2.42971        0.89453        0.88553
H         -0.52232       -1.52930       -2.20825
H         -0.91539        1.72599       -1.91590
O 1.7984552422949016 1.0526315789308914e-06 4.124691578947369
H 2.6984552422949015 1.0526315789308914e-06 4.124691578947369
H 1.5054439032834606 0.8509677706709641 4.124691578947369
O -2.1947380893505533 -2.0105756954789813 3.3746915789473686
H -1.2947380893505533 -2.0105756954789813 3.3746915789473686
H -2.4877494283619943 -1.1596089774395961 3.3746915789473686
O 0.319563630775922 3.641053902967989 2.624691578947368
H 1.2195636307759221 3.641053902967989 2.624691578947368
H 0.026552291764480984 4.4920206210073745 2.624691578947368
O 2.4890000612183547 -3.246434746043323 1.8746915789473684
H 3.3890000612183546 -3.246434746043323 1.8746915789473684
H 2.1959887222069137 -2.395468028003938 1.8746915789473684
O -4.290482874536448 0.7589303197892207 1.1246915789473684
H -3.3904828745364477 0.7589303197892207 1.1246915789473684
H -4.583494213547889 1.6098970378286057 1.1246915789473684
O 3.7837106030797854 2.406876303172537 0.3746915789473687
H 4.683710603079786 2.406876303172537 0.3746915789473687
H 3.4906992640683443 3.2578430212119223 0.3746915789473687
O -1.16413756696373 -4.330601195966836 -0.37530842105263135
H -0.2641375669637299 -4.330601195966836 -0.37530842105263135
H -1.457148905975171 -3.4796344779274513 -0.37530842105263135
O -2.0082024636703557 3.866708163101989 -1.1253084210526312
H -1.1082024636703558 3.866708163101989 -1.1253084210526312
H -2.3012138026817968 4.717674881141374 -1.1253084210526312
O 3.8425630228324574 -1.4032900730200868 -1.8753084210526323
H 4.742563022832457 -1.4032900730200868 -1.8753084210526323
H 3.5495516838210164 -0.5523233549807016 -1.8753084210526323
O -3.3785088436523543 -1.3946058889993056 -2.6253084210526305
H -2.4785088436523544 -1.3946058889993056 -2.6253084210526305
H -3.6715201826637953 -0.5436391709599204 -2.6253084210526305
O 1.2615834052760853 2.6958921466079797 -3.3753084210526314
H 2.1615834052760854 2.6958921466079797 -3.3753084210526314
H 0.9685720662646442 3.5468588646473647 -3.3753084210526314
O 0.5382615428739435 -1.7160028348383898 -4.125308421052631
H 1.4382615428739434 -1.7160028348383898 -4.125308421052631
H 0.24525020386250246 -0.8650361167990046 -4.125308421052631



