%chk=Fe_3_bpw91_3_6.chk
#p bpw91 6-31+G(2df,p) scf=(maxcycles=500,xqc,maxconventional=50) scrf=(cpcm,solvent=water)

Fe_3_bpw91_solvated_radius_4

3 6
Fe        -0.00000       -0.00000        0.00000
O          0.44241       -1.97765       -0.41401
H          0.02845       -2.53711       -1.10862
O         -1.45401       -0.60589        1.34063
H         -2.03414       -0.02216        1.87811
O          1.40363       -0.00432        1.51924
H          2.35562        0.22616        1.43698
O         -0.44257        1.97761        0.41420
H         -1.10345        2.53874       -0.04901
O          1.45396        0.60597       -1.34060
H          2.03350        0.02223       -1.87874
O         -1.40328        0.00434       -1.51956
H         -2.35550       -0.22533       -1.43754
H         -1.24507        0.23666       -2.46147
H         -1.69613       -1.53242        1.56228
H          1.10539       -2.53786        0.04728
H          1.69664        1.53251       -1.56158
H          1.24593       -0.23718        2.46110
H         -0.03224        2.53547        1.11179
O 1.7983915580843755 -1.2105263157833801e-05 4.1250252631578945
H 2.6983915580843756 -1.2105263157833801e-05 4.1250252631578945
H 1.5053802190729344 0.8509546127762273 4.1250252631578945
O -2.1948017735610796 -2.0105888533737177 3.375025263157895
H -1.2948017735610797 -2.0105888533737177 3.375025263157895
H -2.4878131125725207 -1.1596221353343326 3.375025263157895
O 0.31949994656539565 3.6410407450732527 2.6250252631578945
H 1.2194999465653957 3.6410407450732527 2.6250252631578945
H 0.026488607553954657 4.492007463112638 2.6250252631578945
O 2.4889363770078283 -3.2464479039380594 1.8750252631578948
H 3.3889363770078282 -3.2464479039380594 1.8750252631578948
H 2.1959250379963873 -2.3954811858986744 1.8750252631578948
O -4.290546558746974 0.7589171618944839 1.1250252631578948
H -3.390546558746974 0.7589171618944839 1.1250252631578948
H -4.583557897758415 1.609883879933869 1.1250252631578948
O 3.783646918869259 2.4068631452778004 0.37502526315789503
H 4.683646918869259 2.4068631452778004 0.37502526315789503
H 3.490635579857818 3.257829863317186 0.37502526315789503
O -1.164201251174256 -4.330614353861574 -0.374974736842105
H -0.2642012511742561 -4.330614353861574 -0.374974736842105
H -1.4572125901856972 -3.4796476358221886 -0.374974736842105
O -2.008266147880882 3.8666950052072524 -1.1249747368421048
H -1.1082661478808822 3.8666950052072524 -1.1249747368421048
H -2.301277486892323 4.717661723246637 -1.1249747368421048
O 3.842499338621931 -1.4033032309148237 -1.874974736842106
H 4.742499338621931 -1.4033032309148237 -1.874974736842106
H 3.54948799961049 -0.5523365128754385 -1.874974736842106
O -3.3785725278628806 -1.3946190468940425 -2.624974736842104
H -2.4785725278628807 -1.3946190468940425 -2.624974736842104
H -3.6715838668743217 -0.5436523288546573 -2.624974736842104
O 1.261519721065559 2.6958789887132433 -3.374974736842105
H 2.161519721065559 2.6958789887132433 -3.374974736842105
H 0.968508382054118 3.5468457067526282 -3.374974736842105
O 0.5381978586634171 -1.7160159927331267 -4.1249747368421055
H 1.438197858663417 -1.7160159927331267 -4.1249747368421055
H 0.24518651965197608 -0.8650492746937415 -4.1249747368421055



