%chk=Fe_3_BMK_3_6.chk
#p BMK 6-31+G(2df,p) empiricaldispersion=gd3 scf=(maxcycles=500,xqc,maxconventional=50) scrf=(cpcm,solvent=water)

Fe_3_BMK_solvated_radius_4

3 6
Fe         0.00002        0.00003        0.00001
O          0.43944        1.93274       -0.43676
H          1.10799        2.48609        0.00430
O         -1.39629        0.61954        1.33637
H         -1.96196        0.04864        1.88599
O         -1.40707       -0.01136       -1.46254
H         -1.26821       -0.25351       -2.39523
O         -0.43931       -1.93266        0.43684
H         -0.01954       -2.47845        1.12585
O          1.39619       -0.61933       -1.33658
H          1.96233       -0.04856       -1.88577
O          1.40696        0.01096        1.46269
H          1.26815        0.25368        2.39523
H          2.34596       -0.22533        1.36142
H         -1.62357        1.54238        1.54754
H          0.02090        2.47819       -1.12605
H          1.62294       -1.54223       -1.54816
H         -2.34609        0.22485       -1.36116
H         -1.10868       -2.48581       -0.00430
O 1.7984452422949015 -7.368421052679851e-06 4.124983684210527
H 2.6984452422949015 -7.368421052679851e-06 4.124983684210527
H 1.5054339032834605 0.8509593496183325 4.124983684210527
O -2.1947480893505533 -2.010584116531613 3.3749836842105263
H -1.2947480893505534 -2.010584116531613 3.3749836842105263
H -2.4877594283619944 -1.1596173984922278 3.3749836842105263
O 0.31955363077592197 3.6410454819153575 2.624983684210526
H 1.219553630775922 3.6410454819153575 2.624983684210526
H 0.026542291764480974 4.492012199954742 2.624983684210526
O 2.4889900612183546 -3.2464431670959546 1.8749836842105263
H 3.3889900612183546 -3.2464431670959546 1.8749836842105263
H 2.1959787222069136 -2.395476449056569 1.8749836842105263
O -4.290492874536448 0.7589218987365891 1.1249836842105263
H -3.390492874536448 0.7589218987365891 1.1249836842105263
H -4.583504213547889 1.6098886167759743 1.1249836842105263
O 3.7837006030797853 2.406867882119905 0.3749836842105266
H 4.683700603079785 2.406867882119905 0.3749836842105266
H 3.4906892640683442 3.25783460015929 0.3749836842105266
O -1.16414756696373 -4.330609617019468 -0.3750163157894735
H -0.26414756696373 -4.330609617019468 -0.3750163157894735
H -1.457158905975171 -3.4796428989800834 -0.3750163157894735
O -2.0082124636703558 3.866699742049357 -1.1250163157894733
H -1.1082124636703559 3.866699742049357 -1.1250163157894733
H -2.301223802681797 4.717666460088743 -1.1250163157894733
O 3.8425530228324574 -1.4032984940727184 -1.8750163157894744
H 4.742553022832458 -1.4032984940727184 -1.8750163157894744
H 3.5495416838210163 -0.5523317760333333 -1.8750163157894744
O -3.3785188436523543 -1.3946143100519373 -2.625016315789473
H -2.4785188436523544 -1.3946143100519373 -2.625016315789473
H -3.6715301826637954 -0.5436475920125521 -2.625016315789473
O 1.2615734052760852 2.695883725555348 -3.3750163157894737
H 2.1615734052760853 2.695883725555348 -3.3750163157894737
H 0.9685620662646441 3.5468504435947334 -3.3750163157894737
O 0.5382515428739434 -1.7160112558910214 -4.125016315789473
H 1.4382515428739433 -1.7160112558910214 -4.125016315789473
H 0.2452402038625024 -0.8650445378516363 -4.125016315789473



