%chk=Fe_3_O3LYP_3_6.chk
#p O3LYP 6-31+G(2df,p) scf=(maxcycles=500,xqc,maxconventional=50) scrf=(cpcm,solvent=water)

Fe_3_O3LYP_solvated_radius_4

3 6
Fe         0.00016        0.00002        0.00009
O         -1.45246        0.04667        1.46833
H         -1.47837       -0.49600        2.27533
O         -1.07372       -1.44349       -1.01539
H         -0.82616       -1.86516       -1.85658
O         -1.00362        1.47740       -1.03820
H         -0.87974        2.43787       -0.94407
O          1.45183       -0.04441       -1.46901
H          2.23814       -0.61711       -1.48956
O          1.07405        1.44223        1.01721
H          0.82461        1.86529        1.85713
O          1.00354       -1.47847        1.03681
H          0.87677       -2.43863        0.94360
H          1.69264       -1.34780        1.71114
H         -1.92362       -1.83124       -0.74336
H         -2.24039        0.61674        1.48525
H          1.92605        1.82731        0.74809
H         -1.69028        1.34522       -1.71473
H          1.47928        0.50356       -2.27255
O 1.7983689265054281 3.5059674461847047e-17 4.124975263157895
H 2.6983689265054283 3.5059674461847047e-17 4.124975263157895
H 1.505357587493987 0.8509667180393852 4.124975263157895
O -2.194824405140027 -2.01057674811056 3.3749752631578946
H -1.294824405140027 -2.01057674811056 3.3749752631578946
H -2.487835744151468 -1.159610030071175 3.3749752631578946
O 0.3194773149864484 3.6410528503364104 2.624975263157894
H 1.2194773149864484 3.6410528503364104 2.624975263157894
H 0.026465975975007383 4.492019568375795 2.624975263157894
O 2.488913745428881 -3.2464357986749017 1.8749752631578946
H 3.388913745428881 -3.2464357986749017 1.8749752631578946
H 2.19590240641744 -2.3954690806355163 1.8749752631578946
O -4.290569190325922 0.7589292671576418 1.1249752631578946
H -3.390569190325922 0.7589292671576418 1.1249752631578946
H -4.583580529337363 1.609895985197027 1.1249752631578946
O 3.7836242872903116 2.406875250540958 0.37497526315789503
H 4.6836242872903115 2.406875250540958 0.37497526315789503
H 3.4906129482788706 3.257841968580343 0.37497526315789503
O -1.1642238827532034 -4.3306022485984155 -0.375024736842105
H -0.2642238827532034 -4.3306022485984155 -0.375024736842105
H -1.4572352217646445 -3.4796355305590305 -0.375024736842105
O -2.0082887794598294 3.86670711047041 -1.125024736842105
H -1.1082887794598295 3.86670711047041 -1.125024736842105
H -2.3013001184712705 4.717673828509795 -1.125024736842105
O 3.8424767070429837 -1.4032911256516658 -1.875024736842106
H 4.742476707042984 -1.4032911256516658 -1.875024736842106
H 3.5494653680315427 -0.5523244076122806 -1.875024736842106
O -3.378595159441828 -1.3946069416308846 -2.6250247368421045
H -2.478595159441828 -1.3946069416308846 -2.6250247368421045
H -3.671606498453269 -0.5436402235914994 -2.6250247368421045
O 1.2614970894866118 2.695891093976401 -3.3750247368421054
H 2.1614970894866117 2.695891093976401 -3.3750247368421054
H 0.9684857504751707 3.5468578120157863 -3.3750247368421054
O 0.5381752270844697 -1.7160038874699688 -4.125024736842105
H 1.4381752270844697 -1.7160038874699688 -4.125024736842105
H 0.24516388807302875 -0.8650371694305836 -4.125024736842105



