%chk=kojate_ox_lowspin.chk
#p uB3LYP empiricaldispersion=gd3 opt=(cartesian,loose,maxcycles=2000,calcfc) scf=(maxcycles=500,xqc,maxconventional=50) 6-31+G(2df,p)  

kojate ox low-spin state

0 2
C            1.69283819520408       -0.50873499888011       -0.74789918582554
C            2.38953525841761       -1.46167511408154       -0.06991827859433
O            1.94278661783758       -2.02843463450573        1.05610947773076
C            0.71795112253692       -1.64808018498069        1.54599769341570
C           -0.08826861003308       -0.69304288468191        0.96175075838015
C            0.42678424661119       -0.05130554616174       -0.27378778641513
O           -0.25638554404881        0.83634376280340       -0.83706688143773
O           -1.22457776883248       -0.33091178097118        1.40962474449280
C            3.74300496994456       -1.98120477709159       -0.49432100648433
O            4.56530203643086       -1.00294713929943       -1.08480954363214
H            2.10687033135736       -0.09356553537878       -1.65411777801662
H            0.46116217035264       -2.19077232137854        2.44170437337203
H            4.22984556103937       -2.43168508273702        0.38219326320602
H            3.62456723093969       -2.75734652560209       -1.25774997532322
H            4.65213298329259       -0.25308478216584       -0.47972005019842
Fe          -2.00069768387372        1.22935891078257        0.09404858570999
C           -3.77448611932174        2.84701867898935       -3.31483973758832
C           -4.43143764808086        2.23287948344948       -4.33763661028008
O           -4.61282704835258        0.90865912018300       -4.39459030478299
C           -4.12853708033404        0.13006571330877       -3.37416535470335
C           -3.44412920635805        0.62175551756631       -2.28122755585724
C           -3.23294807032113        2.09063889542995       -2.23262953261143
O           -2.61190443978140        2.59108362745558       -1.26520211588353
O           -2.98720811606769       -0.09299554465165       -1.33111990399045
C           -5.00962676231890        2.96221168968438       -5.52647007042891
O           -4.12123727832949        3.89481640269166       -6.10220967916282
H           -3.65847884209432        3.92008446215523       -3.32920576988661
H           -4.35505918435753       -0.91320743176950       -3.52615684080076
H           -5.32959609968740        2.21601837575519       -6.26650710646604
H           -5.88153301608689        3.54925195597744       -5.22244881071768
H           -3.29486694673598        3.44769155566325       -6.33136559043189
C           -1.67260741062999        3.86936794431393        3.30462125496916
C           -2.61094819167011        4.28173821274542        4.20021586107090
O           -3.88833001430748        3.89028940275517        4.14921559185610
C           -4.27232649473470        3.01465612924343        3.16415989695573
C           -3.42370814265853        2.51148826675036        2.19947909296932
C           -2.01452846570572        2.97601351630595        2.24510551554423
O           -1.20307674919813        2.56793664252276        1.38124920168400
O           -3.76838472015852        1.69341569457341        1.28573919793986
C           -2.32960310553030        5.22499111007756        5.34638812082559
O           -1.34364610405192        6.18736573834433        5.06069851446126
H           -0.65580060746998        4.21793897888066        3.40293951430592
H           -5.31654723707285        2.75821783816835        3.24496232362422
H           -3.27488809949770        5.70122573608287        5.64264266338683
H           -1.94601883092219        4.66394916883683        6.20505408028326
H           -1.59976589534126        6.67951183284482        4.26832019334299


--link1--
%chk=kojate_ox_lowspin.chk
#p ub3lyp geom=allcheck guess=read chkbasis empiricaldispersion=gd3 scf=(maxcycles=500,xqc,maxconventional=50) scrf=(cpcm,solvent=water)


