118
 energy: -219.365631894140 gnorm: 0.000919670787 xtb: 6.6.0 (conda-forge)
C           -1.34799780055132       -2.88431280805865        1.13065611573442
C           -2.06093085381275       -1.94876140764547        1.87149143889820
C           -1.62922985925758       -0.65121087267520        1.94209871394876
C           -0.43826601654624       -0.16545941645778        1.29517551388279
C            0.27814584125405       -1.16268856032873        0.53613849014877
C           -0.19985564170425       -2.46268820576804        0.48496180356802
C            1.56449090577303       -0.89534520271227       -0.20765780614421
O            2.26129233564104        0.12128787654712       -0.01332480929485
O            1.93048962982398       -1.79463940329062       -1.04368040698421
O           -0.15738136206742        1.06409757764177        1.42004537157124
H           -1.66871610616519       -3.91582656233839        1.07238081744985
H           -2.95927163817351       -2.24943745836060        2.40000487078094
H           -2.17883434413996        0.07856214303225        2.52772295211110
H            0.38393178139008       -3.16994284350191       -0.09977365668979
Fe           1.80182549213572        2.10175583015394        1.13353779501923
C            1.16907449022692        4.45748392695566        6.51508223151738
C            0.64072909115889        5.37555451660740        5.61249449119707
C            0.68074792004725        5.12421079769648        4.26834326282147
C            1.25357693655564        3.93544128222628        3.68994598895027
C            1.81091473760243        3.01495892033663        4.65375276775286
C            1.74210443810402        3.30734655160159        6.01000639955982
C            2.49102932240772        1.73911244549769        4.27432595229310
O            2.51325044463746        1.28129278407528        3.11638817126677
O            3.07498987995005        1.09495891280214        5.23293970088610
O            1.22770024481557        3.82142424480859        2.42893011991780
H            1.13856305927419        4.63747671949309        7.58084576839788
H            0.19243631524760        6.29277624909272        5.97767496004916
H            0.27187067505952        5.83963806819494        3.56433583640275
H            2.17592233767060        2.57619796316008        6.68682929711285
C            3.55959474190949        3.85601876850396       -4.16508866949999
C            2.18437442488768        3.66152200157609       -4.23832265199210
C            1.46474273695971        3.39637515066018       -3.10484218875181
C            2.04775489299045        3.28209704976969       -1.79338999290563
C            3.47270238984733        3.50939393303912       -1.75032244035054
C            4.16240471889031        3.77666219285847       -2.92413206556079
C            4.28506529759844        3.46921699897199       -0.48689651382967
O            3.86358968201767        3.02939488075012        0.59717430133833
O            5.48502691824077        3.93057196031348       -0.58835506942835
O            1.27337316714013        3.04321572948167       -0.81959810139007
H            4.14665881949470        4.05149157057574       -5.05207372481855
H            1.68100164392766        3.71194228721700       -5.19782925334531
H            0.39441823510706        3.22753459791388       -3.16082433601716
H            5.23475407597079        3.92832779785353       -2.83523420692770
O            6.26673055394187       -0.06684575001000        9.37263971355866
H            5.68631913957206       -0.46528744788572        8.71733885582331
H            6.45370021350512        0.82603718782661        9.06682550313582
O           -0.77171230435603       -1.39694166307774        7.73510866969244
H            0.17206552617411       -1.43705681134727        7.91736776131269
H           -0.86379761832677       -1.06558535252515        6.83738970895743
O            4.12410041017032        8.84151111848673        8.06988377547565
H            4.43709428084188        7.93518211912980        8.14507146837123
H            3.82200961873780        8.95482498523239        7.16385946073325
O            4.12641064177126       -0.91031607533446        3.88626908596621
H            3.79120168292692       -0.60536468027205        3.03269105086295
H            3.76936161833062       -0.19604520235790        4.49627867162731
O           -4.41097460326996        3.45376981497495        6.10975974898314
H           -3.66081645315034        2.89373632573502        5.89089406178896
H           -4.11124787958585        4.36459479752874        6.02689847633073
O            7.34279798124231        4.67302064707896        6.28326847216285
H            7.99197519989897        4.62360764322721        5.57417667597591
H            6.53140178541893        4.28877254434798        5.94046420193208
O            1.73666925308383       -5.35355242036006        5.57417510355708
H            2.55245575285403       -4.85206129159112        5.66740668319404
H            1.20936735194882       -4.89948007379231        4.91059487658521
O           -2.09973617278620       10.79342955736185        3.36631357646263
H           -1.71368117063281       10.00400443227477        3.75716052539738
H           -1.88121310797296       10.77457630734856        2.42918222793699
O            9.33513059615882        0.04288537901671        4.52585331589816
H            9.00847364222629        0.45697134269321        3.72180137906542
H            8.56220204493741       -0.26614912473888        5.00830013896249
O           -7.80195214784761        0.16498922900692        3.03308261475424
H           -7.14767604724560       -0.18575867957858        2.42140680721599
H           -7.33578810520613        0.75756253133230        3.63107591633690
O            5.12174061861185        8.28692480870772        2.66273725449038
H            4.57875807591985        7.51066566905770        2.49965719874856
H            6.03538959770344        7.98443545562428        2.68221152149394
O            5.14921463197642       -5.55786193027284        1.66982497127759
H            5.68741108002978       -4.91903587604018        2.14793640520647
H            4.38999533249183       -5.07699270928048        1.32865748229012
O           -3.66605631391019        4.49231120215882        0.44433303749275
H           -2.92180017358651        4.17742915537929       -0.07724362166527
H           -3.42009651542760        4.34920507006099        1.36335264060220
O            7.60750441856323        4.00962773996766        0.99337930790359
H            8.26016025372941        3.72418097324270        0.34579105372523
H            6.74136258869472        3.96644628769594        0.50927444849445
O           -3.93679216486919       -5.04155803668340       -3.28606655108264
H           -2.97499640352823       -5.02736316140369       -3.29514876678221
H           -4.22305833884535       -4.27027665559754       -2.78706784813679
O            0.50073758471214        8.42872683264846       -0.85904849171046
H            0.12551546098490        7.58276403994910       -0.59657712338271
H            1.45579339913041        8.32247254162900       -0.82735045980445
O            7.30829890766946       -1.36667065570727       -0.87825189106050
H            6.97578422833204       -0.64170882903513       -0.34178565580385
H            6.53557833888750       -1.82319797319772       -1.22457111418188
O           -5.65094940321841        0.31522980272367       -2.13902984244991
H           -4.81188418604561        0.23166948833929       -1.67726147786646
H           -6.02379336390405        1.16649349185613       -1.88655353245186
O            7.43829084594496        8.50948321619725       -2.24574847809308
H            7.89632886746736        7.67552871235817       -2.10453230259316
H            6.53817886481515        8.38316573493627       -1.93153679824112
O            1.57535164727101       -5.76766520871323       -4.74700161790958
H            1.81178184699846       -5.43576445997145       -3.87666072974180
H            1.43481069906833       -4.99770810469979       -5.30739421266298
O           -2.79645075090489        7.32620820400537       -5.03685895016824
H           -2.45271819427137        6.48445768303723       -4.72366282816838
H           -2.62139576738343        7.97254619352447       -4.34534801713207
O            9.10962778550806        1.46277084292760       -5.13297021230300
H            8.99968912822442        1.57336390950960       -4.18417033798943
H            8.27478774246875        1.12294955661113       -5.46988285365494
O           -1.30652523536885       -1.06700400592461       -5.52341459043224
H           -0.82597859489815       -0.94343036638253       -4.70041842150911
H           -2.23196104985524       -0.87277410107169       -5.34049348091495
O            2.15050417246376        8.42463086007558       -7.59427755119626
H            2.76854261357516        7.94007150755919       -7.03924795349911
H            1.26991993139125        8.25946086813657       -7.24252201910138
O            4.15890942482488       -1.11356380697187       -6.10757090216022
H            4.10743637257671       -1.06648797870989       -5.14890788126290
H            3.41441529755528       -0.60839716541995       -6.44966674318214
