%chk=salicylate_original_Reduced_Structure.chk
#p B3LYP empiricaldispersion=gd3 scrf=(cpcm,solvent=water) scf=(maxcycles=500,xqc,maxconventional=1000) 6-31+G(2df,p)

Reduced_Structure

-4 1
 C                 -0.47442110   -2.15809962    0.41043944
 C                 -1.25826456   -1.31759616    1.12585334
 C                 -0.81041224   -0.02756807    1.43902642
 C                  0.45361159    0.40994424    1.01753747
 C                  1.25081629   -0.45095300    0.25929159
 C                  0.78652800   -1.74083767   -0.03321721
 C                  2.62219101   -0.02981161   -0.27857284
 O                  3.12021133    1.10235098   -0.06146384
 O                  3.29629958   -0.87901309   -0.99816724
 O                  0.82879084    1.61035520    1.35749346
 H                 -0.82010062   -3.14468240    0.18227259
 H                 -2.22408830   -1.64032458    1.45438166
 H                 -1.43718281    0.62862665    2.00600716
 H                  1.39875290   -2.41023828   -0.60065310
 Fe                 2.48099961    2.34925750    1.10742236
 C                  0.25420637    2.82074499    5.88394117
 C                  0.07274683    4.01494278    5.27134294
 C                  0.69080383    4.28294575    4.03987377
 C                  1.47667098    3.35186815    3.43936651
 C                  1.71456789    2.12845969    4.08290146
 C                  1.08141792    1.85623490    5.30044952
 C                  2.68045607    1.09005700    3.49156279
 O                  3.21402795    1.26389832    2.36965915
 O                  2.96027420    0.01732299    4.17297694
 O                  1.97820623    3.62208382    2.31302645
 H                 -0.23315819    2.61644498    6.81433749
 H                 -0.54679807    4.75815204    5.72818438
 H                  0.53809010    5.23046739    3.56681856
 H                  1.23264016    0.91447122    5.78533406
 C                  3.36577799    3.83608281   -3.88839240
 C                  2.01703202    3.84273091   -3.76520973
 C                  1.42921997    3.65327624   -2.50999635
 C                  2.23719186    3.45303398   -1.38466784
 C                  3.62914281    3.49620972   -1.52875200
 C                  4.17946313    3.66346753   -2.75854952
 C                  4.55137756    3.38528934   -0.30718827
 O                  4.09284336    3.15264952    0.83766802
 O                  5.83345677    3.54770912   -0.45974755
 O                  1.68574730    3.24647787   -0.26913433
 H                  3.81301265    3.96518830   -4.85183048
 H                  1.40143159    3.99138664   -4.62766992
 H                  0.36382850    3.65790028   -2.41090219
 H                  5.24398191    3.66722511   -2.86664982



