%chk=salicylate_optimized_Oxidized_Structure.chk
#p B3LYP empiricaldispersion=gd3 scrf=(cpcm,solvent=water) scf=(maxcycles=500,xqc,maxconventional=1000) 6-31+G(2df,p)

Oxidized_Structure

-3 2
C           -0.96247656392862       -3.00301707300637        0.14293835725967
C           -1.74971855323224       -2.13147683577008        0.88692009891786
C           -1.29752561401127       -0.87313330915782        1.17862748861677
C           -0.01431789596390       -0.36309121317391        0.76419085401142
C            0.77668911419918       -1.29366149353515       -0.00881899094533
C            0.27635938069700       -2.55696329314281       -0.28118409392406
C            2.15265017084654       -0.98609525159669       -0.55230928272992
O            2.76735404492280        0.06886035373447       -0.29614375455836
O            2.67408572659403       -1.88229896157297       -1.30794670499299
O            0.27797206015766        0.82341723216913        1.09548288815342
H           -1.30083438932070       -4.00313503796699       -0.09411993002442
H           -2.72543110416628       -2.44896734151842        1.24076021946569
H           -1.90377194005464       -0.19036563271933        1.76688572841006
H            0.92040574318078       -3.21111281667308       -0.86524841451172
Fe           2.21118019177447        1.93084808610045        0.98375215331586
C            0.89866940299874        3.62312559350809        6.48442297062271
C            0.37369356231426        4.58412298685843        5.62797437660178
C            0.60588308737462        4.50879112694029        4.28086561374023
C            1.37324799271447        3.46188757657383        3.65453996619037
C            1.92057830160331        2.49219840633350        4.57577453882284
C            1.66101276772854        2.60941909455084        5.93196038180084
C            2.78416361612686        1.32509658053455        4.15788187378767
O            2.91349571690601        0.96414139938754        2.97033208058581
O            3.37640985893052        0.69537725059714        5.10563660858551
O            1.50953968966944        3.50657968583773        2.39551895267442
H            0.71974186016474        3.66171837322707        7.55103207323646
H           -0.22466179910737        5.39675943356349        6.02712088263299
H            0.19544553237301        5.25479728696314        3.60717757110411
H            2.09853404864487        1.84595981681954        6.57215055234366
C            3.84619378586370        4.74648120390845       -3.93615666585750
C            2.49444418744685        4.44855661905855       -4.06457364066759
C            1.81000349842130        3.88725132838614       -3.02037107569738
C            2.40928962500552        3.55577594798994       -1.75232945301948
C            3.81143957089149        3.88978196915151       -1.64882734823351
C            4.46264666428311        4.45880593865838       -2.73142729464633
C            4.64605623414683        3.65351552862489       -0.41144227276469
O            4.23754796271845        3.00697109861850        0.57471786608846
O            5.82279966169879        4.16347067975425       -0.42079160439863
O            1.66278156255246        3.04434486674512       -0.86623658901988
H            4.40560185897513        5.18321508441119       -4.75316055613509
H            1.97894008904561        4.65703443734557       -4.99674393866218
H            0.75653550083153        3.64173587156476       -3.11876328773910
H            5.51873699800305        4.68140888194186       -2.59366512841251


