52
cyanide_solvated_1_optimized_Reduced_Structure.log	Energy: -1766658.2076900
Fe         0.33694       -0.18882        0.00061
C         -0.85695        0.75373        1.28499
C          1.75550       -0.29038        1.39370
C         -0.38647       -1.93541        0.60993
C          1.53046       -1.13143       -1.28404
C         -1.08193       -0.08712       -1.39224
C          1.06037        1.55774       -0.60871
N         -1.55947        1.30804        2.04026
N          2.58984       -0.35011        2.21314
N         -0.81345       -2.96617        0.96958
N          2.23175       -1.68610       -2.04023
N         -1.91663       -0.02724       -2.21131
N          1.48731        2.58853       -0.96827
O          2.06975        4.54936       -2.85685
H          2.56470        5.08591       -2.22315
H          1.79037        3.77412       -2.33040
O          3.04681        4.60124        0.01774
H          2.44082        3.87503       -0.25861
H          3.80037        4.15996        0.42166
O         -3.19041        5.81916       -1.80074
H         -2.29683        5.78559       -1.44791
H         -3.38359        4.94072       -2.14207
O          4.61082       -2.64943       -3.14494
H          4.14728       -3.05256       -3.89102
H          3.89120       -2.25081       -2.61731
O         -1.71542        2.27083        4.67480
H         -1.46982        1.90536        3.80368
H         -2.65725        2.47239        4.57808
O         -3.83521        0.59418       -3.99126
H         -3.67597       -0.06983       -4.67004
H         -3.15503        0.41441       -3.29747
O          5.30924        0.04824        2.27076
H          5.64830       -0.81274        2.00188
H          4.33080       -0.03830        2.25073
O         -3.99296        2.35500        2.72796
H         -3.16557        1.91000        2.43781
H         -4.16089        3.03994        2.07194
O          1.90320       -2.87354       -4.48182
H          1.47144       -2.20264       -5.01953
H          1.94881       -2.49182       -3.57519
O          2.95862       -0.85359        4.88354
H          2.83648       -0.72722        3.91679
H          2.36696       -0.21853        5.29800
O         -7.43542       -2.47270       -1.02509
H         -6.78568       -2.89650       -0.45647
H         -6.99592       -1.71726       -1.42669
O         -0.24086       -5.62216        0.58496
H         -0.02944       -5.64332       -0.35374
H         -0.43852       -4.67986        0.78480
O         -3.08088       -3.77993        2.28918
H         -2.29463       -3.50130        1.76970
H         -3.00852       -3.31606        3.12886
