133
cyanide_solvated_2_Reduced_Structure.log	Energy: -3061743.0637776
Fe         0.41096       -0.26337        0.11453
C         -0.75856        0.90150        1.22753
C          1.70993       -0.39523        1.61739
C         -0.53992       -1.86872        0.79555
C          1.58011       -1.42827       -0.99877
C         -0.88833       -0.13131       -1.38814
C          1.36184        1.34197       -0.56650
N         -1.44673        1.58658        1.88197
N          2.47393       -0.47277        2.50140
N         -1.10115       -2.81613        1.19752
N          2.26709       -2.11365       -1.65420
N         -1.65269       -0.05355       -2.27182
N          1.92304        2.28942       -0.96838
O          2.84621        4.01531       -2.94825
H          3.35188        4.54849       -2.32020
H          2.44778        3.31972       -2.38823
O          3.62160        4.20457       -0.01849
H          2.96029        3.52466       -0.28564
H          4.29248        3.72267        0.47490
O         -2.30360        5.90721       -2.40305
H         -1.44567        5.81062       -1.98028
H         -2.56775        5.02820       -2.69124
O          4.59706       -3.40706       -2.49485
H          4.14494       -3.82062       -3.24223
H          3.89063       -2.89346       -2.05630
O         -1.67835        2.77620        4.41639
H         -1.41454        2.31602        3.59701
H         -2.58345        3.06559        4.23181
O         -3.36371        0.61323       -4.23731
H         -3.23154       -0.11788       -4.84971
H         -2.75702        0.42224       -3.48116
O          5.21004       -0.35518        2.74015
H          5.47053       -1.26605        2.56407
H          4.23176       -0.34115        2.65067
O         -3.79261        2.93383        2.29753
H         -3.00086        2.38284        2.10695
H         -3.83864        3.57552        1.58072
O          1.98033       -3.45963       -4.01756
H          1.66296       -2.79464       -4.63621
H          2.00457       -3.01059       -3.14145
O          2.59946       -0.78783        5.22271
H          2.55916       -0.73036        4.24262
H          2.05367       -0.06257        5.54088
O         -7.47502       -1.80628       -1.33756
H         -6.91658       -2.24639       -0.68983
H         -6.92865       -1.13653       -1.75952
O         -0.79775       -5.53992        1.05973
H         -0.52541       -5.66092        0.14458
H         -0.90434       -4.56886        1.17205
O         -3.53002       -3.27773        2.39433
H         -2.68389       -3.12633        1.91806
H         -3.46559       -2.75562        3.19976
O          4.19852        6.26919       -5.46795
H          4.15994        5.92452       -6.29845
H          3.46528        6.77100       -5.32462
O          6.63791        6.56290        0.43244
H          6.59934        6.21823       -0.39805
H          5.90468        7.06471        0.57578
O         -1.09381        8.40721       -3.89785
H         -1.13238        8.06255       -4.72835
H         -1.82705        8.90902       -3.75452
O          7.50450        1.83575       -5.18672
H          7.46593        1.49109       -6.01721
H          6.77126        2.33757       -5.04338
O          2.21428        8.18969        3.96427
H          2.17571        7.84502        3.13377
H          1.48104        8.69150        4.10760
O         -1.15274        3.88087       -8.36966
H         -1.19131        3.53620       -9.20015
H         -1.88598        4.38268       -8.22632
O          9.15332        1.17655        1.38105
H          9.11474        0.83189        0.55055
H          8.42008        1.67836        1.52438
O         -4.34096        8.22021        1.01295
H         -4.37954        7.87555        0.18245
H         -5.07420        8.72203        1.15628
O          3.91130       -1.67409       -8.24770
H          3.87272       -2.01875       -9.07819
H          3.17806       -1.17228       -8.10436
O          4.65538        3.84224        7.15887
H          4.61680        3.49758        6.32838
H          3.92214        4.34405        7.30221
O         -6.38420        3.98554       -5.47927
H         -6.42277        3.64087       -6.30977
H         -7.11743        4.48735       -5.33594
O          8.25356       -3.94505       -1.68344
H          8.21498       -4.28971       -2.51394
H          7.52032       -3.44324       -1.54011
O         -3.40761        5.79790        6.51972
H         -3.44619        5.45324        5.68922
H         -4.14085        6.29971        6.66305
O         -2.14303       -2.53956       -8.65935
H         -2.18160       -2.88422       -9.48984
H         -2.87627       -2.03774       -8.51601
O          6.56333       -1.95770        6.35322
H          6.52475       -2.30237        5.52273
H          5.83009       -1.45589        6.49656
O         -8.62203        3.56134        0.25857
H         -8.66061        3.21668       -0.57193
H         -9.35527        4.06315        0.40191
O          3.84253       -6.97391       -4.76233
H          3.80396       -7.31857       -5.59282
H          3.10930       -6.47210       -4.61899
O         -0.61989        1.05240        9.28333
H         -0.65847        0.70774        8.45284
H         -1.35313        1.55421        9.42667
O         -7.27000       -2.29355       -5.30868
H         -7.30858       -2.63821       -6.13917
H         -8.00324       -1.79174       -5.16534
O          5.34054       -6.96424        3.11245
H          5.30197       -7.30891        2.28195
H          4.60730       -6.46243        3.25578
O         -7.46095        0.90976        5.55502
H         -7.49952        0.56510        4.72453
H         -8.19418        1.41157        5.69836
O         -2.08964       -7.70908       -4.71479
H         -2.12822       -8.05374       -5.54528
H         -2.82288       -7.20727       -4.57145
O          0.74255       -4.58786        8.10181
H          0.70398       -4.93252        7.27131
H          0.00932       -4.08604        8.24514
O         -8.72325       -3.23855        0.31224
H         -8.76183       -3.58322       -0.51825
H         -9.45649       -2.73674        0.45558
O          0.35208       -9.23829        0.95865
H          0.31350       -9.58295        0.12815
H         -0.38116       -8.73648        1.10198
O         -4.93582       -4.46494        6.54307
H         -4.97440       -4.80960        5.71257
H         -5.66906       -3.96312        6.68640
O         -5.32553       -7.56204        0.96564
H         -5.36410       -7.90670        0.13515
H         -6.05877       -7.06023        1.10898
