%chk=cyanide_solvated_1_Reduced_Structure.chk
#p B3LYP empiricaldispersion=gd3 scrf=(cpcm,solvent=water) scf=(maxcycles=500,xqc,maxconventional=1000) 6-31+G(2df,p)

Reduced_Structure

-4 1
Fe        -0.00005       -0.00018        0.00006
C         -1.42306        1.39194       -0.02169
C         -1.39203       -1.42336       -0.01658
C          0.02706       -0.00348       -1.98599
C          1.42326       -1.39196        0.02171
C          1.39168        1.42333        0.01664
C         -0.02715        0.00310        1.98610
N         -2.25983        2.21101       -0.03460
N         -2.21082       -2.26042       -0.02639
N          0.04301       -0.00538       -3.15811
N          2.26110       -2.20998        0.03416
N          2.21010        2.26076        0.02633
N         -0.04320        0.00504        3.15821
O 1.793072901477051 3.2307692307687056e-05 4.303350502006463
H 2.693072901477051 3.2307692307687056e-05 4.303350502006463
H 1.50006156246561 0.8509990257316928 4.303350502006463
O -2.1965187905050874 -2.0121637660984297 3.5861234952617953
H -1.2965187905050874 -2.0121637660984297 3.5861234952617953
H -2.4895301295165284 -1.1611970480590446 3.5861234952617953
O 0.3212682505037887 3.660656964100544 2.868896488517129
H 1.2212682505037886 3.660656964100544 2.868896488517129
H 0.028256911492347714 4.51162368213993 2.868896488517129
O 2.5163458626662742 -3.282088250278221 2.1516694817724615
H 3.416345862666274 -3.282088250278221 2.1516694817724615
H 2.223334523654833 -2.431121532238836 2.1516694817724615
O -4.3679906910214905 0.7726693102818628 1.4344424750277962
H -3.4679906910214906 0.7726693102818628 1.4344424750277962
H -4.661002030032932 1.6236360283212479 1.4344424750277962
O 3.886742091593516 2.4724560502555164 0.7172154682831287
H 4.786742091593516 2.4724560502555164 0.7172154682831287
H 3.5937307525820748 3.3234227682949014 0.7172154682831287
O -1.2102635359110379 -4.502107751365516 -1.1538461538183343e-05
H -0.31026353591103784 -4.502107751365516 -1.1538461538183343e-05
H -1.503274874922479 -3.651141033326131 -1.1538461538183343e-05
O -2.123150775081154 4.08804029615125 -0.7172385452062051
H -1.2231507750811539 4.08804029615125 -0.7172385452062051
H -2.416162114092595 4.939007014190635 -0.7172385452062051
O 4.166650604053609 -1.521619843714945 -1.4344655519508724
H 5.066650604053609 -1.521619843714945 -1.4344655519508724
H 3.8736392650421676 -0.6706531256755599 -1.4344655519508724
O -3.822840734835291 -1.5779829981685252 -2.1516925586955393
H -2.922840734835291 -1.5779829981685252 -2.1516925586955393
H -4.115852073846732 -0.72701628012914 -2.1516925586955393
O 1.55751010654078 3.328329431640656 -2.868919565440206
H 2.45751010654078 3.328329431640656 -2.868919565440206
H 1.2644987675293389 4.179296149680042 -2.868919565440206
O 0.8915323570987327 -2.8422961653385985 -3.5861465721848726
H 1.7915323570987327 -2.8422961653385985 -3.5861465721848726
H 0.5985210180872917 -1.9913294472992134 -3.5861465721848726
O -1.5513767308177129 0.8990899543083583 -4.3033735789295395
H -0.6513767308177129 0.8990899543083583 -4.3033735789295395
H -1.844388069829154 1.7500566723477435 -4.3033735789295395


