247
cyanide_solvated_3_Reduced_Structure.log	Energy: -4884635.9868112
Fe        -0.18538       -0.67238       -0.11424
C          0.24591        0.76130       -1.42649
C         -0.66948       -1.89495       -1.60899
C          1.69258       -1.31380       -0.19781
C         -0.61646       -2.10579        1.19833
C          0.29887        0.55051        1.38029
C         -2.06334       -0.03098       -0.03065
N          0.49978        1.60474       -2.19810
N         -0.95418       -2.61403       -2.48823
N          2.80092       -1.69230       -0.24718
N         -0.86953       -2.94848        1.97106
N          0.58380        1.26993        2.25918
N         -3.17166        0.34757        0.01862
O         -5.19264        1.49578        1.53638
H         -5.77393        1.63577        0.77715
H         -4.40139        1.07258        1.14762
O         -5.40784        0.89228       -1.44598
H         -4.55858        0.71058       -0.98352
H         -5.65331        0.06410       -1.86918
O         -2.67820        5.63896        0.01490
H         -2.74918        5.04595       -0.73901
H         -2.22920        5.15038        0.71049
O         -2.71682       -4.88423        2.63882
H         -2.27062       -5.08858        3.47205
H         -2.16516       -4.17760        2.24500
O         -0.05581        3.30216       -4.29534
H          0.00008        2.59100       -3.62472
H          0.69914        3.86982       -4.08711
O          1.05011        3.39444        3.83444
H          1.84928        3.12891        4.30065
H          0.83289        2.63472        3.24129
O         -3.32167       -3.85008       -3.14765
H         -3.33620       -4.63132       -2.58551
H         -2.50124       -3.36673       -2.90769
O          2.00770        3.90805       -2.26789
H          1.55861        3.03865       -2.18452
H          1.83778        4.37286       -1.44329
O         -0.40344       -4.08518        4.37012
H         -0.52031       -3.37264        5.00581
H         -0.48111       -3.66244        3.47971
O          0.00926       -3.82197       -4.71072
H         -0.31191       -3.41895       -3.87010
H         -0.11314       -3.14759       -5.38657
O          6.07808        2.79339        1.22219
H          6.68920        2.13225        0.87898
H          5.19057        2.45662        1.08054
O          4.99848       -2.71090        0.92564
H          5.07667       -2.19882        1.73612
H          4.15486       -2.41063        0.50594
O          5.05867       -1.32044       -1.83119
H          4.18689       -1.37281       -1.39241
H          5.62438       -1.89980       -1.30531
O         -9.73281        2.12166        4.60088
H         -9.69522        1.16117        4.64933
H         -8.90979        2.41206        4.19689
O        -10.45073        2.07336       -2.15123
H        -10.03456        1.73441       -1.35291
H         -9.74130        2.32595       -2.75019
O         -4.80204        7.51332        0.52223
H         -5.53301        6.89005        0.58263
H         -4.01012        6.97963        0.35765
O         -7.58817       -2.96446        3.85449
H         -7.42294       -3.88849        3.64120
H         -6.88556       -2.45364        3.44319
O         -6.49179        3.81725       -5.96256
H         -5.94965        3.66376       -5.18360
H         -6.11464        3.28939       -6.67354
O         -2.81377        6.90174        5.65971
H         -2.44374        6.06731        5.35797
H         -3.33932        7.25382        4.93385
O         -8.17746       -6.46843       -2.65309
H         -7.64079       -6.63055       -1.87115
H         -7.81183       -5.69099       -3.08565
O         -1.88315        8.78618       -4.25287
H         -2.64731        8.75969       -3.66818
H         -1.27340        8.10796       -3.94804
O         -4.51431       -4.08686        8.37300
H         -4.09869       -3.22039        8.42164
H         -4.67594       -4.26758        7.44199
O         -4.17881       -1.16259       -8.05384
H         -4.14755       -1.66429       -7.23439
H         -3.57383       -0.42209       -7.95235
O          2.50263        8.41540        3.91110
H          1.61590        8.08438        4.08361
H          3.00693        7.68511        3.53985
O         -4.36636       -6.88652        1.47348
H         -3.70992       -7.57443        1.32252
H         -3.87710       -6.12841        1.82872
O         -1.37689        3.49746       -6.79690
H         -0.94697        3.32373       -5.94519
H         -1.58724        4.43841       -6.79455
O         -2.28380        0.88307        7.06660
H         -1.69055        1.62397        7.22966
H         -2.36364        0.79364        6.11345
O          0.10510       -6.53170       -5.57255
H         -0.80480       -6.63140       -5.87237
H          0.15921       -5.64182       -5.19097
O          5.74122        7.99515       -1.42682
H          5.63698        7.08258       -1.71284
H          5.25275        8.08846       -0.60315
O          1.70062       -5.88135        4.98124
H          1.51421       -6.65843        4.44505
H          1.00896       -5.23506        4.76276
O          3.42657        0.07062       -7.04657
H          3.51580       -0.23133       -6.13833
H          2.65755        0.64901       -7.07486
O          4.74962        5.47601        7.94436
H          3.88235        5.79904        7.68179
H          5.22867        5.26635        7.13631
O          0.88624       -7.97388       -0.30749
H          0.68121       -7.04886       -0.15040
H          1.05918       -8.06632       -1.25075
O          6.74507        3.30027       -4.39000
H          6.28736        2.75876       -3.74066
H          6.08993        3.55900       -5.04570
O          6.77371       -5.57390        6.88043
H          5.84186       -5.42812        7.06950
H          6.85674       -5.62826        5.92352
O          5.15888       -5.02002       -5.86391
H          4.77178       -4.82813       -5.00523
H          4.49533       -4.79526       -6.52395
O          6.91761        5.08613        2.75961
H          6.54981        4.32179        2.29312
H          7.68311        5.36618        2.24666
O          5.76689       -5.38903        1.36201
H          4.93316       -5.86828        1.37655
H          5.53839       -4.46672        1.15667
O          9.55787       -1.70820       -4.53043
H          8.84234       -2.34336       -4.63280
H          9.15006       -0.86162       -4.32280
O         10.23341       -2.23072        1.61369
H          9.71040       -2.80332        2.18319
H          9.82451       -2.25594        0.74299
O        -11.59733        3.70945        3.51857
H        -11.57205        3.62867        4.41458
H        -11.33007        4.53830        3.29144
O        -12.22963        0.93545       -3.27553
H        -12.20436        0.85467       -2.37952
H        -11.96237        1.76430       -3.50266
O         -8.37229        9.40034        1.58951
H         -8.34702        9.31955        2.48552
H         -8.10503       10.22918        1.36238
O        -11.54382       -2.56306        4.53111
H        -11.51854       -2.64385        5.42713
H        -11.27656       -1.73422        4.30399
O         -8.91771        5.18486       -7.43426
H         -8.89243        5.10407       -6.53825
H         -8.65044        6.01370       -7.66139
O         -6.75962        6.74200        8.31609
H         -6.73435        6.66122        9.21210
H         -6.49236        7.57085        8.08897
O        -10.94656       -5.79050       -2.75056
H        -10.92128       -5.87129       -1.85455
H        -10.67930       -4.96165       -2.97768
O         -4.48926       11.34064       -3.57152
H         -4.46398       11.25985       -2.67551
H         -4.22200       12.16949       -3.79865
O         -7.52302       -2.05202        9.95421
H         -7.49774       -2.13281       10.85022
H         -7.25575       -1.22318        9.72709
O         -7.63858       -0.99587      -10.11917
H         -7.61330       -1.07666       -9.22316
H         -7.37131       -0.16703      -10.34629
O         -1.90414       11.08954        5.83637
H         -1.87887       11.00876        6.73238
H         -1.63688       11.91839        5.60925
O         -8.23578       -9.18178        2.86122
H         -8.21051       -9.26256        3.75723
H         -7.96852       -8.35293        2.63409
O         -2.45764        7.96556       -9.61656
H         -2.43236        7.88477       -8.72055
H         -2.19038        8.79441       -9.84369
O         -2.29443        2.58453       12.16131
H         -2.26915        2.50374       13.05732
H         -2.02716        3.41337       11.93418
O         -6.30254       -7.89416       -7.69907
H         -6.27726       -7.97495       -6.80306
H         -6.03528       -7.06531       -7.92619
O          1.74870       12.56628       -0.57199
H          1.77397       12.48550        0.32402
H          2.01596       13.39513       -0.79911
O         -3.93054       -7.95542        9.00398
H         -3.90527       -8.03621        9.89999
H         -3.66328       -7.12657        8.77685
O         -1.46996        0.97679      -12.60623
H         -1.44469        0.89601      -11.71022
H         -1.20270        1.80564      -12.83335
O          2.83303        7.74967        9.59963
H          2.85831        7.66888       10.49564
H          3.10029        8.57852        9.37251
O         -3.80017      -11.98419       -1.60807
H         -3.77490      -12.06498       -0.71206
H         -3.53291      -11.15534       -1.83520
O          3.86317        9.57682       -7.42907
H          3.88844        9.49603       -6.53306
H          4.13043       10.40566       -7.65620
O          1.38640       -3.21914       12.14052
H          1.41167       -3.29992       13.03653
H          1.65366       -2.39029       11.91340
O         -0.38184       -6.52939      -10.90310
H         -0.35656       -6.61018      -10.00709
H         -0.11458       -5.70055      -11.13022
O          6.80984       10.14835        3.39305
H          6.83512       10.06757        4.28906
H          7.07710       10.97720        3.16592
O          0.23258      -11.63661        4.96063
H          0.25785      -11.71740        5.85664
H          0.49984      -10.80776        4.73350
O          4.95833        3.06107      -11.31522
H          4.98360        2.98028      -10.41921
H          5.22559        3.88992      -11.54234
O          6.61527        2.07193       10.57974
H          6.64055        1.99114       11.47575
H          6.88253        2.90078       10.35261
O          1.85656      -11.27728       -5.51439
H          1.88184      -11.35807       -4.61838
H          2.12383      -10.44843       -5.74151
O          9.24021        8.06595       -3.31405
H          9.26548        7.98516       -2.41804
H          9.50747        8.89480       -3.54118
O          5.30049       -7.70716        8.50784
H          5.32576       -7.78794        9.40385
H          5.56775       -6.87831        8.28071
O          6.15381       -3.99367      -10.38646
H          6.17908       -4.07446       -9.49045
H          6.42107       -3.16483      -10.61359
O         10.63858        4.45682        5.24436
H         10.66386        4.37604        6.14037
H         10.90584        5.28567        5.01723
O          5.71860      -11.30163        0.29163
H          5.74388      -11.38242        1.18764
H          5.98586      -10.47279        0.06451
O         10.59779        2.23046       -6.65327
H         10.62306        2.14968       -5.75726
H         10.86505        3.05931       -6.88039
O         10.18777       -3.38293        6.70408
H         10.21305       -3.46372        7.60009
H         10.45504       -2.55409        6.47695
O          8.80328       -7.48200       -5.25901
H          8.82856       -7.56279       -4.36299
H          9.07054       -6.65316       -5.48613
O         12.64877        0.93075       -0.29516
H         12.67405        0.84996        0.60085
H         12.91604        1.75959       -0.52228
O         11.04180       -6.13253        1.03990
H         11.06708       -6.21332        1.93591
H         11.30907       -5.30369        0.81278
