%chk=cyanide_solvated_2_Reduced_Structure.chk
#p B3LYP empiricaldispersion=gd3 scrf=(cpcm,solvent=water) scf=(maxcycles=500,xqc,maxconventional=1000) 6-31+G(2df,p)

Reduced_Structure

-4 1
Fe          -0.00004999999882       -0.00017999999839        0.00006000000123
C           -1.42305999999890        1.39194000001696       -0.02168999999801
C           -1.39203000000878       -1.42336000000982       -0.01658000000060
C            0.02706000001541       -0.00347999999326       -1.98599000002100
C            1.42325999999549       -1.39195999999623        0.02171000000176
C            1.39168000000471        1.42333000000085        0.01663999999774
C           -0.02714999999736        0.00309999999975        1.98610000000626
N           -2.25983000002141        2.21101000000842       -0.03459999999642
N           -2.21082000000913       -2.26042000000015       -0.02639000000311
N            0.04300999999359       -0.00538000000384       -3.15810999998132
N            2.26110000000152       -2.20998000001113        0.03416000000086
N            2.21010000000190        2.26076000002308        0.02633000000210
N           -0.04319999998129        0.00504000000147        3.15821000002046
O            1.08326003779400        0.28171439569993        5.68909367044000
H            0.27784907617297       -0.01112070266607        6.13630195524208
H            0.84994766993385        0.22883141496013        4.74094825302475
O           -1.72595697897044       -0.74859812083460        5.17205344922107
H           -1.19071311140450       -0.44042465696332        4.40425134267932
H           -2.02544423106262       -1.63085823231069        4.93191809938732
O            0.07637877670097        5.57985060225364        4.54322792429822
H           -0.31352999364789        4.72061454750330        4.72705116991145
H            0.69025011701656        5.45194222313339        3.81365803937253
O            3.43227991298451       -4.71865481943780        0.41263268140631
H            4.29969754263825       -4.40016712306128        0.12947096012331
H            2.86119410486126       -3.92986018416223        0.33007885074323
O           -5.04415234272022        2.58027924922861       -0.09159694383099
H           -4.12314089204335        2.26071382840350       -0.04318017856054
H           -4.94586236855962        3.53356833831749       -0.22797105395662
O            3.84178791040858        4.35902914328392        0.43886435183232
H            4.68120726176747        3.99990008589820        0.13321979061013
H            3.19117570540727        3.62698498825452        0.30799726081894
O           -2.59344090085796       -4.64018746406976        1.29551273104924
H           -2.09329519328414       -5.25922265784390        0.75219462624957
H           -2.47431178386107       -3.76303079318413        0.86932807341670
O           -3.05868037449070        4.82174482022422       -0.22649815250011
H           -2.70574535460458        3.90404021700412       -0.22110844336482
H           -2.64099921503710        5.26288921595956        0.52092020039108
O            4.96968117526183       -2.22204899032152       -0.34371051141380
H            5.29949782256098       -1.54709082577675        0.25738368448899
H            3.98823523099410       -2.16851151426853       -0.28304222854463
O           -4.60668616758946       -2.92096635279242       -1.18571745917846
H           -3.72257293963583       -2.71300732083634       -0.81075020427859
H           -5.15463914792166       -2.15807472403457       -0.97863987120092
O            2.26876912898641        6.42157913956610       -4.50451245640964
H            1.81567753523290        5.63395560083969       -4.81987306017077
H            2.37823906486634        6.31236158478526       -3.55518248523171
O            1.20024833581325       -1.49775301860023       -5.14901513780946
H            2.07938719475645       -1.65520409472370       -4.79036078843316
H            0.72929323596066       -0.97652246808253       -4.46093425703569
O           -0.78049245581833        1.73329177348335       -5.11864725533747
H           -0.43524720617345        1.13215322249404       -4.42213014876375
H           -1.72642733886876        1.79562410719101       -4.95497052005688
O 2.4872627080531737 0.5046189314336794 9.041206856242908
H 3.3872627080531736 0.5046189314336794 9.041206856242908
H 2.1942513690417327 1.3555856494730647 9.041206856242908
O -3.1744866365188398 -2.3797371023459375 8.35078579031691
H -2.27448663651884 -2.3797371023459375 8.35078579031691
H -3.467497975530281 -1.5287703843065523 8.35078579031691
O 0.4464882127968581 5.887329063230162 7.660364724390918
H 1.346488212796858 5.887329063230162 7.660364724390918
H 0.15347687378541708 6.738295781269547 7.660364724390918
O 3.7838636221794117 -4.464553390707169 6.969943658464922
H 4.683863622179412 -4.464553390707169 6.969943658464922
H 3.4908522831679707 -3.6135866726677843 6.969943658464922
O -6.866936968849136 1.7147006479830398 6.279522592538929
H -5.966936968849136 1.7147006479830398 6.279522592538929
H -7.159948307860577 2.565667366022425 6.279522592538929
O 6.30886600984601 4.5342835617393655 5.589101526612932
H 7.208866009846011 4.5342835617393655 5.589101526612932
H 6.015854670834569 5.3852502797787505 5.589101526612932
O -2.0949033431751674 -7.191940963548398 4.898680460686939
H -1.1949033431751674 -7.191940963548398 4.898680460686939
H -2.3879146821866084 -6.340974245509013 4.898680460686939
O -3.874264421857731 7.91439522316892 4.208259394760942
H -2.974264421857731 7.91439522316892 4.208259394760942
H -4.167275760869172 8.765361941208305 4.208259394760942
O 8.10658194130819 -2.465353317708983 3.5178383288349466
H 9.006581941308191 -2.465353317708983 3.5178383288349466
H 7.81357060229675 -1.6143865996695979 3.5178383288349466
O -8.254569811808087 -2.892053083875304 2.8274172629089516
H -7.354569811808087 -2.892053083875304 2.8274172629089516
H -8.547581150819529 -2.041086365835919 2.8274172629089516
O 3.825847842113962 8.735597239862496 2.136996196982957
H 4.7258478421139625 8.735597239862496 2.136996196982957
H 3.532836503102521 9.586563957901882 2.136996196982957
O 2.7328405688432538 -8.290705926281618 1.446575131056961
H 3.6328405688432537 -8.290705926281618 1.446575131056961
H 2.4398292298318127 -7.439739208242233 1.446575131056961
O -8.068113644935426 5.165241541784317 0.7561540651309656
H -7.168113644935426 5.165241541784317 0.7561540651309656
H -8.361124983946867 6.016208259823702 0.7561540651309656
O 9.077378730493727 2.5059509619282574 0.0657329992049713
H 9.977378730493728 2.5059509619282574 0.0657329992049713
H 8.784367391482286 3.3569176799676423 0.0657329992049713
O -5.371780848660343 -7.099335220177263 -0.6246880667210252
H -4.471780848660343 -7.099335220177263 -0.6246880667210252
H -5.664792187671784 -6.248368502137878 -0.6246880667210252
O -1.2104978955309522 9.646018116658947 -1.3151091326470186
H -0.3104978955309522 9.646018116658947 -1.3151091326470186
H -1.5035092345423933 10.496984834698333 -1.3151091326470186
O 6.922939548593914 -5.351877060577684 -2.0055301985730143
H 7.822939548593914 -5.351877060577684 -2.0055301985730143
H 6.629928209582473 -4.500910342538299 -2.0055301985730143
O -8.920454992088361 0.13680148462687575 -2.6959512644990085
H -8.02045499208836 0.13680148462687575 -2.6959512644990085
H -9.213466331099802 0.9877682026662609 -2.6959512644990085
O 6.111020999644686 6.611682864922635 -3.3863723304250057
H 7.011020999644686 6.611682864922635 -3.3863723304250057
H 5.818009660633245 7.46264958296202 -3.3863723304250057
O -0.411584718859302 -7.8359977098471685 -4.0767933963509995
H 0.48841528114069804 -7.8359977098471685 -4.0767933963509995
H -0.704596057870743 -6.9850309918077835 -4.0767933963509995
O -5.132234234693173 6.6237044649251136 -4.7672144622769945
H -4.2322342346931725 6.6237044649251136 -4.7672144622769945
H -5.425245573704614 7.4746711829644985 -4.7672144622769945
O 7.414875818025832 -0.4965279948472042 -5.4576355282029905
H 8.314875818025833 -0.4965279948472042 -5.4576355282029905
H 7.121864479014391 0.35443872319218095 -5.4576355282029905
O -5.728597900142806 -3.4631642315216236 -6.148056594128986
H -4.828597900142806 -3.4631642315216236 -6.148056594128986
H -6.021609239154247 -2.612197513482238 -6.148056594128986
O 1.348386086075297 6.613493516131364 -6.838477660054981
H 2.248386086075297 6.613493516131364 -6.838477660054981
H 1.055374747063856 7.464460234170749 -6.838477660054981
O 2.660558998153809 -4.183624025698669 -7.5288987259809765
H 3.560558998153809 -4.183624025698669 -7.5288987259809765
H 2.367547659142368 -3.332657307659284 -7.5288987259809765
O -4.093923663098156 1.8024269116252896 -8.21931979190697
H -3.1939236630981562 1.8024269116252896 -8.21931979190697
H -4.386935002109597 2.6533936296646745 -8.21931979190697
O 2.2555260945435625 1.5586993064052774 -8.909740857832968
H 3.1555260945435624 1.5586993064052774 -8.909740857832968
H 1.9625147555321214 2.409666024444663 -8.909740857832968


