133
cyanide_solvated_2_optimized_Oxidized_Structure.log	Energy: -3061827.8682122
Fe        -0.13850       -0.62657       -0.08274
C          0.24902        0.85563       -1.35410
C         -0.54794       -1.83225       -1.61311
C          1.76644       -1.18463       -0.15273
C         -0.52582       -2.10851        1.18894
C          0.27108        0.57943        1.44741
C         -2.04344       -0.06853       -0.01274
N          0.47713        1.72761       -2.10165
N         -0.78873       -2.54138       -2.51329
N          2.89071       -1.51394       -0.19409
N         -0.75318       -2.97974        1.93765
N          0.51209        1.28893        2.34726
N         -3.16769        0.26082        0.02852
O         -5.25784        1.28420        1.54189
H         -5.83377        1.41746        0.77739
H         -4.44357        0.90487        1.15539
O         -5.40425        0.74439       -1.45681
H         -4.55460        0.58815       -0.98585
H         -5.60762       -0.08307       -1.90310
O         -2.90354        5.56705        0.15704
H         -2.93806        4.98996       -0.61163
H         -2.44378        5.08148        0.84770
O         -2.52434       -5.00854        2.53132
H         -2.08163       -5.21367        3.36622
H         -1.99821       -4.26957        2.16273
O         -0.12144        3.44990       -4.16654
H         -0.04440        2.72577       -3.51209
H          0.60521        4.04422       -3.93349
O          0.86360        3.39273        3.97909
H          1.66679        3.15052        4.45106
H          0.68791        2.63898        3.36495
O         -3.09091       -3.86153       -3.23773
H         -3.07965       -4.65606       -2.69444
H         -2.29566       -3.34939       -2.97395
O          1.88486        4.09450       -2.09411
H          1.47266        3.20488       -2.03812
H          1.68327        4.53150       -1.26147
O         -0.27256       -4.15313        4.31609
H         -0.42918       -3.46185        4.96654
H         -0.35576       -3.71268        3.43481
O          0.25760       -3.65273       -4.74867
H         -0.09263       -3.28433       -3.90378
H          0.11577       -2.96807       -5.41023
O          5.94955        3.07133        1.43046
H          6.59351        2.44552        1.08113
H          5.07953        2.70033        1.26737
O          5.11335       -2.46541        0.98782
H          5.15778       -1.97022        1.81124
H          4.26359       -2.19154        0.56248
O          5.15259       -1.00733       -1.73423
H          4.27773       -1.10766       -1.31017
H          5.73528       -1.57445       -1.21358
O         -9.86400        1.64039        4.55061
H         -9.78559        0.68150        4.57699
H         -9.04864        1.97552        4.16619
O        -10.48296        1.72478       -2.21093
H        -10.06393        1.38477       -1.41456
H         -9.77666        2.02199       -2.79287
O         -5.11346        7.33574        0.67592
H         -5.81758        6.68041        0.71046
H         -4.29694        6.84065        0.51092
O         -7.49098       -3.32950        3.71739
H         -7.28292       -4.24016        3.48493
H         -6.80533       -2.77920        3.32902
O         -6.54929        3.72863       -5.91922
H         -6.01216        3.57972       -5.13590
H         -6.13958        3.23480       -6.63659
O         -3.17394        6.68585        5.82732
H         -2.76391        5.87561        5.51168
H         -3.70385        7.03253        5.10202
O         -7.83547       -6.69698       -2.87920
H         -7.30347       -6.85481       -2.09320
H         -7.49768       -5.89433       -3.28768
O         -2.18467        8.84785       -4.02273
H         -2.95522        8.77445       -3.45056
H         -1.55056        8.18923       -3.72470
O         -4.43609       -4.42804        8.25459
H         -4.05907       -3.54597        8.32998
H         -4.57648       -4.59294        7.31722
O         -3.99355       -1.09532       -8.09173
H         -3.95230       -1.61491       -7.28395
H         -3.42267       -0.33222       -7.96359
O          2.09637        8.46805        4.19623
H          1.22242        8.09522        4.34733
H          2.63702        7.76927        3.81561
O         -4.06898       -7.05095        1.29407
H         -3.38132       -7.70622        1.13697
H         -3.61807       -6.28138        1.67450
O         -1.41399        3.64884       -6.68268
H         -0.98912        3.47315       -5.82884
H         -1.66484        4.57957       -6.66136
O         -2.40424        0.66316        7.09989
H         -1.84597        1.42466        7.28941
H         -2.46656        0.59348        6.14379
O          0.48280       -6.33421       -5.67256
H         -0.41757       -6.46557       -5.98851
H          0.49294       -5.45232       -5.26934
O          5.42576        8.31644       -1.10005
H          5.36518        7.40743       -1.40906
H          4.92204        8.36875       -0.28196
O          1.89830       -5.87165        4.91675
H          1.75332       -6.64281        4.35962
H          1.18251       -5.25053        4.70303
O          3.53626        0.43826       -6.93969
H          3.62553        0.11852       -6.03756
H          2.74343        0.98365       -6.96608
O          4.41074        5.53100        8.19292
H          3.53414        5.82279        7.92483
H          4.90987        5.36170        7.38757
O          1.25055       -7.86856       -0.43165
H          1.00349       -6.95726       -0.25594
H          1.44074       -7.93064       -1.37407
O          6.67382        3.74205       -4.15739
H          6.23076        3.16584       -3.52805
H          6.01750        3.98822       -4.81674
O          6.92579       -5.39291        6.89988
H          5.98590       -5.29186        7.07809
H          7.02471       -5.42049        5.94334
O          5.47011       -4.60051       -5.85103
H          5.06288       -4.44625       -4.99407
H          4.80692       -4.38852       -6.51564
O          6.66716        5.36009        3.03413
H          6.33944        4.59219        2.54419
H          7.42705        5.68505        2.53966
O          5.99057       -5.11789        1.37263
H          5.17823       -5.63268        1.36314
H          5.72535       -4.20153        1.18562
O          9.70232       -1.13628       -4.37286
H          9.01646       -1.79889       -4.50109
H          9.25536       -0.31325       -4.15159
O         10.31228       -1.77790        1.76683
H          9.80648       -2.38603        2.31463
H          9.91729       -1.79956        0.88963
