133
 energy: -238.035796666187 gnorm: 0.001912072490 xtb: 6.6.0 (conda-forge)
Fe          -0.00004999930759       -0.00017999974610        0.00006000076932
C           -1.42305999950804        1.39194000024792       -0.02169000003084
C           -1.39203000118451       -1.42336000002096       -0.01657999994510
C            0.02706000005986       -0.00348000092060       -1.98598999175097
C            1.42325999975088       -1.39196000042862        0.02171000011154
C            1.39167999961147        1.42333000037516        0.01663999997306
C           -0.02715000074617        0.00309999996359        1.98609999882935
N           -2.25983000010117        2.21100999962027       -0.03460000008287
N           -2.21081999938612       -2.26041999990766       -0.02638999955690
N            0.04300999986847       -0.00538000044750       -3.15810999533219
N            2.26110000000423       -2.20997999987065        0.03416000001956
N            2.21009999994782        2.26075999923873        0.02633000011116
N           -0.04319999753921        0.00504000003311        3.15820999912328
O            1.30800726738406        0.54883742208914        5.52144251259517
H            0.52325655731202        0.43505448099221        6.07383303789130
H            0.98118149407703        0.37637341152176        4.61604115478527
O           -1.61300267865040       -0.31634904165855        5.36607336355012
H           -1.11243470302303       -0.17767026189777        4.53041909580928
H           -1.96687749311055       -1.20898477645006        5.30955897597754
O           -0.50802233288634        5.15480547225332        4.38547876842338
H           -1.20734637254665        4.51533838262752        4.22086129037967
H            0.24095687174243        4.89217725849795        3.84305685178568
O            3.04778263910304       -4.58293723774360        1.19851779883888
H            3.90819397864036       -4.56796368505109        0.75739062872938
H            2.60776659229610       -3.76781192788662        0.88116063107462
O           -4.51574677078378        3.47279975929591        0.91781144155597
H           -3.78269317338334        2.87109640651989        0.67451610141072
H           -4.33819123295304        4.26836420711190        0.39715295358987
O            3.60076851291724        4.53490030356889        0.35302956838997
H            4.11119401112018        4.57859172419065       -0.46188819312778
H            3.07234338824365        3.70307570356194        0.28227353551422
O           -2.82285457606914       -4.24263159052244        1.78023490325592
H           -2.19348440865949       -4.94146337470394        1.57507108873100
H           -2.60430730439100       -3.50297450285160        1.17241856768645
O           -2.49371930202546        4.86613259183142       -0.72710103121012
H           -2.34528907332270        3.90714738903824       -0.57611599626820
H           -1.71926745282288        5.31206858928490       -0.37178118699303
O            4.76464916066186       -2.94901533467712       -0.63731843213774
H            5.33028189419135       -2.26660891679093       -0.26334370726590
H            3.83806157282686       -2.64305372329800       -0.47797187870444
O           -4.28797024083835       -3.25640864347977       -1.44774409443941
H           -3.49627036967274       -2.91649780489749       -0.96828102313631
H           -5.02479712689000       -2.71132760611131       -1.15360537600347
O            1.19525869713536        5.39753879466300       -4.73961172465496
H            0.93007635344408        4.94581238055942       -5.54830056143481
H            1.05953475711420        4.78185588818936       -4.01595079821487
O            1.36378257138781       -0.16556084648200       -5.49738801454802
H            2.12689744962327        0.40420644810591       -5.36236998951727
H            0.89529420785058       -0.18734345681484       -4.62672581237465
O           -1.50394561877164        0.95602015642697       -5.26225687417818
H           -1.08689272754264        0.65770215137832       -4.43018142865659
H           -0.91250359893820        0.63268595617111       -5.95355003835516
O            4.17523250540191       -0.09812723843565       10.18582512684789
H            4.31074284809884       -0.98811443768517        9.84544289289664
H            3.77008052143503        0.41153096826786        9.47800496722178
O           -2.56276794504305       -0.88858168152691       10.47426910629822
H           -1.72587366319393       -1.01291967676949       10.01650651149821
H           -3.16182347123400       -0.46615799505736        9.85093502937925
O           -0.23082951502469        6.27344236616485        7.02235271339234
H           -0.13527509212883        5.45358331639178        7.51745441037248
H           -0.32453167480453        6.01400329394007        6.09339499475489
O            3.94892956834304       -4.25718131809765        6.48767753778848
H            3.82417061566008       -5.09133079331152        6.02371720198296
H            3.51333466806193       -3.57918462652965        5.96390033325417
O           -6.40256239891439        1.74845905087351        7.07682498413299
H           -5.59804641847394        1.83833365901333        6.55822794751680
H           -7.05240768972534        1.31877381651512        6.51164516691212
O            4.99461454653398        6.73028184607397        5.23154331541542
H            4.77950267606334        6.04022241100396        4.59767362404113
H            4.22560439486446        6.83709559761229        5.80098320068766
O           -2.23182413829675       -8.24646655770732        5.56165116157259
H           -1.42372868861353       -8.16627217375590        5.04562636588665
H           -2.72198158573535       -7.42772652132625        5.44074834867747
O           -5.01704521027019        8.05640880345994        4.40417325717289
H           -4.45402835830518        7.82840753203364        5.15085994863430
H           -4.63555927381023        7.63731381220044        3.62730011206601
O            8.63448724899877       -3.97763148830751        3.47226055926962
H            8.61680877334280       -3.02222031353837        3.35931620295238
H            7.71928630936041       -4.27105371232287        3.51554205096265
O           -7.97260231362997       -2.35793965074379        3.17880050693007
H           -7.11087992662725       -2.75877692201522        3.03412871566592
H           -7.92104542713961       -1.45601486636113        2.84938002813335
O            3.26718998757222        9.74621151771532        0.59117042496214
H            3.44373782899677        9.16005295181407        1.33337662396198
H            2.97729452519071        9.19256095466986       -0.14020199558250
O            2.02101216806944       -7.09375331830749        2.05272691877254
H            1.95090435573212       -7.54146643942568        1.20327963210466
H            2.32036651076783       -6.19343294610098        1.85247515762793
O           -7.06084736180601        3.03942667260051        2.09077892604245
H           -6.18524855576214        3.07941158579258        1.67587328554960
H           -7.14887520034914        3.85891786560641        2.59110786408499
O            6.95040173387077        1.33244244047891        2.88146378918731
H            7.06290000404833        2.23561588885778        2.56668661748997
H            6.00726237374322        1.14990876168210        2.87539654743594
O           -4.90005904872925       -5.84633727437408       -2.45383069630707
H           -5.21515449042770       -6.25769358061497       -1.64189423341282
H           -4.59853323261766       -4.96061449832594       -2.19890160014826
O           -1.91839973888283        9.99318257556331       -2.90270770247612
H           -2.12416308187842        9.07708851264337       -3.11219885982997
H           -1.12047022506284        9.98556855567648       -2.36512268532844
O            5.59337694528907       -3.91543129669075       -3.16833075391613
H            5.12408825029925       -4.74933487086840       -3.27061750518267
H            5.29842923396207       -3.54641877454690       -2.31941206982698
O           -6.86690736383099        1.34370005737905       -3.56304527824338
H           -5.93308012405646        1.15675766845416       -3.69365513275922
H           -6.96858950039262        1.63807570755082       -2.65214933286322
O            7.60951825586950        8.00764743819100       -2.25095574410897
H            7.29475981066762        8.01159237463979       -1.34191429020556
H            6.83733049838387        7.90367144222557       -2.81602359550186
O            0.49305315589467       -6.55394941145279       -3.36187726137221
H            0.56065813543557       -5.73601925648361       -2.86308258538934
H           -0.43287411393481       -6.65673453721091       -3.60742643442478
O           -4.41881987134283        5.66553911859072       -5.51984773738335
H           -3.73660519999374        5.05594825198548       -5.22427899033329
H           -5.11324314091834        5.64767991140220       -4.85384305055410
O            7.59902297786006       -1.83896625807471       -7.76216782193069
H            7.74800177291209       -1.98880921535525       -6.82370962291890
H            6.65356866840191       -1.93598876065804       -7.91125083382339
O           -5.18388910191742       -2.80668058634249       -6.76553409191681
H           -4.35711050084490       -2.68585915626352       -6.29029960749523
H           -5.87981044870514       -2.85962930740596       -6.10268687318928
O            2.54364042583828        7.94829437299049       -4.71411191764193
H            2.13749332956278        7.07296766099735       -4.63690228483872
H            2.02931696396510        8.42129326871206       -5.37689417075413
O            2.06019966876296       -2.40941623102049       -7.05731907119696
H            2.09428064359033       -3.13020120272006       -6.42147516799584
H            1.76656219402224       -1.62914555220920       -6.55733229881909
O           -4.03005594048842        1.84201928680264       -9.79136481176143
H           -4.09505673755301        1.00358358567007       -9.32371853449667
H           -3.91079702007562        2.52416478112047       -9.12309894437264
O            2.15270024281526        2.03426797742408      -10.25625718280033
H            2.75638433398510        1.36815998301821       -9.91332966496763
H            1.27663717105453        1.81201724687488       -9.92598530857687
