247
cyanide_solvated_3_optimized_Reduced_Structure.log	Energy: -4884896.6519605
Fe         0.24953       -0.96467        0.38757
C         -0.58434        0.65412        1.19230
C          0.26111       -1.84611        2.17258
C         -1.55405       -1.71528        0.02863
C          1.08329       -2.58329       -0.41757
C          0.23772       -0.08290       -1.39734
C          2.05311       -0.21409        0.74650
N         -1.07493        1.60639        1.66532
N          0.26788       -2.36452        3.22253
N         -2.61851       -2.15821       -0.18318
N          1.57345       -3.53509       -0.89203
N          0.23063        0.43590       -2.44710
N          3.11752        0.22890        0.95839
O          5.45988        1.24083       -0.10737
H          5.73985        1.64021        0.72707
H          4.60369        0.82193        0.11358
O          4.74201        1.37393        2.82422
H          4.09223        0.97154        2.20460
H          4.96299        0.68436        3.45722
O          2.50013        5.42170       -0.28965
H          2.42506        4.98892        0.56565
H          2.44923        4.73075       -0.95519
O          3.30859       -5.63143       -0.62494
H          2.99163       -6.08865       -1.41451
H          2.75698       -4.82185       -0.58150
O         -1.26723        3.76945        3.36367
H         -1.07578        2.91313        2.93139
H         -1.87128        4.19781        2.74043
O          0.39912        2.19333       -4.47053
H          0.00142        1.71640       -5.20597
H          0.35625        1.57316       -3.70245
O          2.47104       -3.29603        4.56859
H          2.68572       -4.11728        4.11542
H          1.70407       -2.91850        4.08441
O         -2.51423        3.76333        0.73173
H         -2.07192        2.92300        0.98087
H         -2.12158        4.03315       -0.10348
O          1.43173       -5.21553       -2.99385
H          1.77979       -4.71887       -3.74084
H          1.40113       -4.57821       -2.23886
O         -1.06275       -3.36632        5.34111
H         -0.60018       -3.03245        4.53642
H         -0.98980       -2.66255        5.99364
O         -5.14907        1.96637       -3.96116
H         -5.70214        1.17806       -3.95723
H         -4.33901        1.74421       -3.49658
O         -4.42857       -3.66243       -1.49185
H         -4.15818       -3.60785       -2.41362
H         -3.73112       -3.18124       -0.98328
O         -5.21552       -1.16138        0.03550
H         -4.26161       -1.36696        0.06700
H         -5.60004       -1.91328       -0.43507
O         10.83077        1.78812       -1.22666
H         11.42444        1.18375       -0.76865
H          9.94376        1.42616       -1.14769
O          9.20576        3.83094        3.88138
H          9.41663        4.05494        2.96929
H          8.31938        4.15991        4.05771
O          3.68324        8.02690       -0.59230
H          4.32000        8.00353        0.12908
H          3.21866        7.17799       -0.56306
O          8.68541       -3.05162       -0.47379
H          8.93581       -3.71936        0.17318
H          7.79081       -2.77533       -0.26001
O          3.54835        5.72495        5.73947
H          3.16899        5.04485        5.17675
H          3.64484        5.34250        6.61803
O          3.92553        6.14605       -5.75462
H          3.76722        5.25694       -5.42559
H          4.34173        6.64142       -5.04176
O          7.89666       -3.88527        4.90502
H          7.50900       -4.73105        4.65867
H          7.23325       -3.21100        4.73372
O         -0.06820        9.01322        2.85389
H          0.78035        8.66835        3.14839
H         -0.35013        8.46913        2.11312
O          7.44625       -6.35453       -4.31575
H          6.87582       -5.77884       -3.79921
H          8.35515       -6.13023       -4.08980
O          2.07710        1.05476        7.99689
H          2.02033        0.75041        7.08774
H          1.28426        1.57246        8.17264
O         -1.30617        7.11962       -4.09055
H         -0.41617        6.81205       -3.89682
H         -1.86044        6.33976       -4.18468
O          5.38078       -6.68340        1.01733
H          5.09466       -7.60134        1.07716
H          4.70934       -6.22961        0.48640
O         -1.50424        4.60422        6.05373
H         -1.39707        4.22778        5.16603
H         -1.41954        5.55826        5.94791
O          5.03930       -1.29515       -4.89712
H          4.24498       -0.75830       -4.96489
H          5.23574       -1.38456       -3.96035
O         -1.44360       -6.04868        6.16498
H         -0.69717       -6.13303        6.76768
H         -1.37851       -5.15716        5.78802
O         -5.24941        8.44103       -1.18229
H         -5.09961        7.50042       -1.04985
H         -5.48243        8.55905       -2.10885
O         -0.78379       -6.86658       -3.63841
H         -0.53172       -7.72631       -3.28434
H         -0.07147       -6.25598       -3.38883
O         -5.84654        0.95827        5.14304
H         -5.86031        0.31611        4.42758
H         -4.98926        1.39214        5.11135
O         -2.93749        3.58629       -9.07493
H         -2.17965        4.19121       -9.10528
H         -3.19184        3.53019       -8.14909
O         -0.69610       -8.59503        1.50301
H         -0.43227       -7.67730        1.39935
H         -1.18746       -8.65528        2.32908
O         -7.65518        3.76138        0.75741
H         -7.16538        3.16942        0.17954
H         -7.13421        3.86637        1.55884
O         -5.80915       -7.59682       -5.89628
H         -5.15866       -7.22904       -5.29072
H         -6.65547       -7.59577       -5.43710
O         -6.29301       -4.58862        4.16820
H         -5.59861       -4.24825        3.59837
H         -5.92597       -5.34596        4.63609
O         -6.18071        4.58969       -4.56572
H         -5.77150        3.73455       -4.37082
H         -7.11794        4.48799       -4.37033
O         -5.29869       -6.24604       -0.74726
H         -4.45413       -6.70250       -0.69565
H         -5.08437       -5.32036       -0.94984
O        -10.18420       -1.23707        1.61805
H         -9.46302       -1.61500        2.12984
H         -9.79962       -0.57225        1.03842
O         -9.52621       -4.21459       -3.05974
H         -8.75488       -3.87959       -3.52636
H         -9.40243       -4.00751       -2.12821
O         11.33806        4.59296       -1.35718
H         11.12668        3.64894       -1.27796
H         11.97753        4.65836       -2.07371
O         10.84956        2.24470        5.63616
H         10.63224        1.37001        5.29908
H         10.33098        2.86879        5.10602
O          8.34300        8.76988       -3.35396
H          8.67131        8.14309       -2.70166
H          7.60807        9.24045       -2.94850
O         13.93335       -2.85635       -1.12938
H         13.27269       -2.96208       -1.82129
H         13.49217       -3.02375       -0.29067
O          5.28052        7.75324        4.70655
H          4.71303        7.03066        5.01755
H          5.05057        8.52000        5.24159
O          8.74247        3.84812       -6.09478
H          8.74366        3.40866       -5.23910
H          8.52905        4.77328       -5.93706
O         10.70634       -3.38967        4.63128
H          9.75248       -3.55226        4.69915
H         11.02038       -3.28277        5.53482
O          3.01634       13.13888        1.94845
H          3.29197       12.30825        1.54867
H          2.05465       13.15867        1.91481
O         10.27100       -2.00842       -5.53554
H          9.57236       -2.13310       -6.18551
H          9.87063       -1.58055       -4.77279
O          2.98510        1.79645       13.34500
H          3.20200        1.23434       12.59492
H          2.16384        2.24905       13.12782
O          0.81721       10.58923       -7.22040
H          1.47662        9.96718       -6.89783
H          0.30875       10.87965       -6.45658
O          9.78149       -9.64750       -0.65505
H          9.14646       -9.81216       -1.35947
H          9.38837       -8.99209       -0.07074
O         -1.23239       10.37548        7.79572
H         -0.45870        9.88794        7.49677
H         -1.91394       10.25603        7.12681
O          7.36303        0.29777       -9.67299
H          8.15231        0.84397       -9.59812
H          6.81000        0.50149       -8.91284
O          2.67876       -4.29839        9.66121
H          3.25734       -4.56130        8.93901
H          2.21903       -3.50350        9.37472
O         -0.52564       11.62470       -1.82819
H          0.18889       10.98227       -1.77615
H         -1.33646       11.16174       -1.59556
O          6.56577       -8.88391       -5.32538
H          6.36289       -8.69176       -6.24611
H          6.86950       -8.04592       -4.94192
O         -1.90668        4.02444       11.59957
H         -1.88443        4.01258       10.63802
H         -2.76643        4.37555       11.85352
O         -0.76423        5.42704       -8.77606
H          0.03836        5.22248       -8.28695
H         -0.87770        6.38308       -8.74777
O          3.22835      -10.78372        4.29739
H          2.99266      -11.10592        3.42138
H          2.80087       -9.92946        4.40781
O         -5.05464        8.50147        4.07428
H         -4.75714        7.74155        3.56574
H         -5.12003        9.24081        3.46130
O          5.63551       -4.91548       -9.14462
H          5.97477       -4.14276       -9.60797
H          5.38855       -4.62623       -8.26132
O         -5.28305       -3.77915        9.31047
H         -4.76568       -4.55609        9.07652
H         -5.09269       -3.10585        8.65062
O         -5.02203        9.47057       -6.98880
H         -5.06294        8.51831       -6.85677
H         -4.24718        9.78652       -6.51333
O          3.26392      -11.27078       -1.39445
H          3.78873      -10.84485       -2.07994
H          2.50943      -10.70043       -1.22014
O         -6.03627        5.48602        8.68257
H         -6.14037        4.66182        8.19789
H         -5.59731        6.10531        8.09089
O         -3.91328       -0.82692      -11.70073
H         -3.11286       -0.30749      -11.57775
H         -4.58756       -0.43760      -11.13484
O         -4.77539      -10.58590        6.72156
H         -5.09793      -10.70306        5.82221
H         -4.16524       -9.84224        6.70896
O        -11.02673        6.43698       -2.21651
H        -11.06633        5.48443       -2.08532
H        -10.26308        6.75506       -1.72497
O         -5.43259       -7.44455       -8.73389
H         -4.58245       -7.88099       -8.84485
H         -5.63606       -7.49654       -7.78648
O        -10.13280       -1.85900        7.20184
H         -9.45741       -2.54150        7.13873
H         -9.77216       -1.06865        6.78826
O         -8.16793        2.18176       -8.66600
H         -7.52502        1.66090       -8.17541
H         -7.76754        3.04298       -8.82243
O         -5.75515      -11.30690        1.17525
H         -4.89518      -11.05338        0.82652
H         -6.37809      -10.62059        0.91604
O        -13.01794        3.40849        2.47006
H        -12.93316        2.47410        2.68423
H        -12.16738        3.69427        2.12250
O         -5.69101       -2.54267       -6.89167
H         -6.36372       -2.93610       -7.45866
H         -4.84990       -2.93002       -7.15078
O        -10.27843       -6.98125        1.69919
H         -9.35733       -6.99343        1.42205
H        -10.40029       -6.18613        2.22744
O        -10.40411        0.99741       -3.55820
H        -11.02198        0.27656       -3.40014
H        -10.36161        1.12830       -4.51099
O        -11.01028       -6.54479       -3.84483
H        -11.25438       -6.91963       -2.99263
H        -10.53086       -5.72446       -3.64835
