13
cyanide_original_Reduced_Structure.log	Energy: -1142953.1968173
Fe         0.00005        0.00018        0.00006
C          1.42133       -1.39369       -0.02267
C          1.39379        1.42164       -0.01594
C         -0.02731        0.00465       -1.98598
C         -1.42153        1.39371        0.02269
C         -1.39344       -1.42162        0.01600
C          0.02740       -0.00428        1.98609
N          2.25708       -2.21379       -0.03616
N          2.21361        2.25769       -0.02537
N         -0.04341        0.00725       -3.15810
N         -2.25836        2.21276        0.03572
N         -2.21290       -2.25804        0.02532
N          0.04359       -0.00691        3.15820
