%chk=Fe_2_BMK_2_5.chk
#p BMK 6-31+G(2df,p) empiricaldispersion=gd3 scf=(maxcycles=500,xqc,maxconventional=50) scrf=(cpcm,solvent=water)

Fe_2_BMK_solvated_radius_4

2 5
Fe         0.00015        0.00021        0.00002
O         -1.73320        0.25916        1.22021
H         -2.48410        0.82900        1.01863
O          1.11878        1.37081        1.19707
H          1.98198        1.73799        0.97513
O          0.65448       -1.65398        1.18351
H          0.53452       -2.58516        0.96515
O          1.73352       -0.26003       -1.21975
H          1.91970        0.17813       -2.05774
O         -1.11850       -1.37015       -1.19755
H         -0.84963       -1.75037       -2.04139
O         -0.65542        1.65373       -1.18352
H         -0.53692        2.58516       -0.96538
H         -1.13587        1.61010       -2.01785
H          0.85083        1.74990        2.04165
H         -1.91886       -0.18005        2.05777
H         -1.98269       -1.73574       -0.97681
H          1.13553       -1.61129        2.01754
H          2.48442       -0.82944       -1.01689
O 1.7983694528212175 -0.00010631578947365614 4.12498947368421
H 2.6983694528212174 -0.00010631578947365614 4.12498947368421
H 1.5053581138097765 0.8508604022499116 4.12498947368421
O -2.194823878824238 -2.010683063900034 3.3749894736842108
H -1.2948238788242379 -2.010683063900034 3.3749894736842108
H -2.487835217835679 -1.1597163458606488 3.3749894736842108
O 0.31947784130223783 3.6409465345469365 2.6249894736842103
H 1.2194778413022378 3.6409465345469365 2.6249894736842103
H 0.026466502290796834 4.491913252586322 2.6249894736842103
O 2.48891427174467 -3.2465421144643756 1.8749894736842105
H 3.38891427174467 -3.2465421144643756 1.8749894736842105
H 2.195902932733229 -2.3955753964249906 1.8749894736842105
O -4.290568664010132 0.7588229513681681 1.1249894736842105
H -3.390568664010132 0.7588229513681681 1.1249894736842105
H -4.583580003021573 1.6097896694075533 1.1249894736842105
O 3.783624813606101 2.4067689347514842 0.3749894736842109
H 4.683624813606101 2.4067689347514842 0.3749894736842109
H 3.4906134745946598 3.2577356527908696 0.3749894736842109
O -1.164223356437414 -4.330708564387889 -0.37501052631578913
H -0.264223356437414 -4.330708564387889 -0.37501052631578913
H -1.457234695448855 -3.479741846348504 -0.37501052631578913
O -2.0082882531440402 3.866600794680936 -1.125010526315789
H -1.1082882531440403 3.866600794680936 -1.125010526315789
H -2.3012995921554813 4.717567512720321 -1.125010526315789
O 3.842477233358773 -1.4033974414411394 -1.8750105263157901
H 4.742477233358773 -1.4033974414411394 -1.8750105263157901
H 3.549465894347332 -0.5524307234017543 -1.8750105263157901
O -3.378594633126039 -1.3947132574203582 -2.6250105263157884
H -2.478594633126039 -1.3947132574203582 -2.6250105263157884
H -3.67160597213748 -0.5437465393809731 -2.6250105263157884
O 1.2614976158024012 2.695784778186927 -3.3750105263157892
H 2.1614976158024013 2.695784778186927 -3.3750105263157892
H 0.9684862767909601 3.546751496226312 -3.3750105263157892
O 0.5381757534002592 -1.7161102032594424 -4.12501052631579
H 1.4381757534002593 -1.7161102032594424 -4.12501052631579
H 0.24516441438881825 -0.8651434852200572 -4.12501052631579



