%chk=Fe_2_OPBE_2_5.chk
#p OPBE 6-31+G(2df,p) scf=(maxcycles=500,xqc,maxconventional=50) scrf=(cpcm,solvent=water)

Fe_2_OPBE_solvated_radius_4

2 5
Fe         0.00063       -0.00122        0.00002
O         -1.93441       -0.91065        0.49260
H         -2.56712       -1.31420       -0.11444
O         -0.97206        1.95711       -0.12173
H         -0.61050        2.76361       -0.51073
O          0.39614        0.33031        2.08540
H          0.90463       -0.24369        2.67297
O          1.92800        0.92387       -0.49419
H          2.28329        1.05530       -1.38222
O          0.97400       -1.95909        0.12337
H          1.85411       -2.18777       -0.20293
O         -0.39557       -0.33379       -2.08526
H         -0.90722        0.24003       -2.67037
H         -0.21214       -1.14139       -2.58285
H         -1.85832        2.18088        0.18947
H         -2.28709       -1.04490        1.38093
H          0.61732       -2.76349        0.52124
H          0.21508        1.14017        2.58010
H          2.58278        1.28516        0.11684
O 1.7990447159791123 -0.0012499999999999734 4.124906315789474
H 2.699044715979112 -0.0012499999999999734 4.124906315789474
H 1.5060333769676713 0.8497167180393852 4.124906315789474
O -2.194148615666343 -2.0118267481105603 3.374906315789474
H -1.294148615666343 -2.0118267481105603 3.374906315789474
H -2.487159954677784 -1.160860030071175 3.374906315789474
O 0.3201531044601325 3.6398028503364106 2.6249063157894734
H 1.2201531044601326 3.6398028503364106 2.6249063157894734
H 0.027141765448691513 4.4907695683757956 2.6249063157894734
O 2.489589534902565 -3.247685798674902 1.8749063157894736
H 3.389589534902565 -3.247685798674902 1.8749063157894736
H 2.196578195891124 -2.396719080635517 1.8749063157894736
O -4.289893400852237 0.7576792671576418 1.1249063157894736
H -3.389893400852237 0.7576792671576418 1.1249063157894736
H -4.582904739863678 1.608645985197027 1.1249063157894736
O 3.7843000767639956 2.4056252505409583 0.374906315789474
H 4.6843000767639955 2.4056252505409583 0.374906315789474
H 3.4912887377525545 3.2565919685803433 0.374906315789474
O -1.1635480932795192 -4.331852248598415 -0.3750936842105261
H -0.2635480932795192 -4.331852248598415 -0.3750936842105261
H -1.4565594322909603 -3.4808855305590303 -0.3750936842105261
O -2.0076129899861455 3.86545711047041 -1.125093684210526
H -1.1076129899861455 3.86545711047041 -1.125093684210526
H -2.3006243289975865 4.716423828509795 -1.125093684210526
O 3.8431524965166677 -1.4045411256516658 -1.875093684210527
H 4.743152496516668 -1.4045411256516658 -1.875093684210527
H 3.5501411575052266 -0.5535744076122806 -1.875093684210527
O -3.377919369968144 -1.3958569416308846 -2.6250936842105252
H -2.477919369968144 -1.3958569416308846 -2.6250936842105252
H -3.670930708979585 -0.5448902235914994 -2.6250936842105252
O 1.262172878960296 2.6946410939764007 -3.375093684210526
H 2.162172878960296 2.6946410939764007 -3.375093684210526
H 0.9691615399488549 3.5456078120157857 -3.375093684210526
O 0.5388510165581539 -1.7172538874699688 -4.125093684210526
H 1.438851016558154 -1.7172538874699688 -4.125093684210526
H 0.24583967754671293 -0.8662871694305836 -4.125093684210526



