%chk=Fe_2_M06-HF_2_5.chk
#p M06HF 6-31+G(2df,p) scf=(maxcycles=500,xqc,maxconventional=50) scrf=(cpcm,solvent=water)

Fe_2_M06-HF_solvated_radius_4

2 5
Fe         0.00006        0.00003        0.00007
O          1.53034       -0.87421       -1.20742
H          2.47534       -0.86838       -1.01353
O          0.01400        1.77029       -1.19514
H         -0.46874        2.58387       -1.00603
O         -1.51965       -0.86391       -1.22703
H         -1.98353       -1.69166       -1.05281
O         -1.53075        0.87355        1.20739
H         -1.39361        1.35534        2.03174
O         -0.01348       -1.77030        1.19511
H         -0.51723       -1.89859        2.00770
O          1.51946        0.86450        1.22698
H          1.98382        1.69182        1.05203
H          1.86599        0.48903        2.04522
H          0.51733        1.89795       -2.00809
H          1.39257       -1.35586       -2.03173
H          0.46980       -2.58359        1.00597
H         -1.86700       -0.48752       -2.04450
H         -2.47568        0.86731        1.01294
O 1.7983862949264806 -1.7368421052570065e-05 4.12494052631579
H 2.6983862949264807 -1.7368421052570065e-05 4.12494052631579
H 1.5053749559150396 0.8509493496183326 4.12494052631579
O -2.1948070367189745 -2.0105941165316126 3.3749405263157892
H -1.2948070367189746 -2.0105941165316126 3.3749405263157892
H -2.4878183757304155 -1.1596273984922274 3.3749405263157892
O 0.319494683407501 3.641035481915358 2.624940526315789
H 1.219494683407501 3.641035481915358 2.624940526315789
H 0.026483344396059982 4.492002199954743 2.624940526315789
O 2.4889311138499335 -3.246453167095954 1.8749405263157894
H 3.3889311138499334 -3.246453167095954 1.8749405263157894
H 2.1959197748384924 -2.395486449056569 1.8749405263157894
O -4.290551821904868 0.7589118987365892 1.1249405263157894
H -3.3905518219048685 0.7589118987365892 1.1249405263157894
H -4.583563160916309 1.6098786167759744 1.1249405263157894
O 3.783641655711364 2.4068578821199056 0.37494052631578967
H 4.683641655711364 2.4068578821199056 0.37494052631578967
H 3.490630316699923 3.2578246001592905 0.37494052631578967
O -1.164206514332151 -4.330619617019468 -0.3750594736842104
H -0.2642065143321509 -4.330619617019468 -0.3750594736842104
H -1.457217853343592 -3.479652898980083 -0.3750594736842104
O -2.008271411038777 3.8666897420493576 -1.12505947368421
H -1.108271411038777 3.8666897420493576 -1.12505947368421
H -2.301282750050218 4.717656460088743 -1.12505947368421
O 3.842494075464036 -1.4033084940727183 -1.8750594736842112
H 4.742494075464037 -1.4033084940727183 -1.8750594736842112
H 3.549482736452595 -0.5523417760333331 -1.8750594736842112
O -3.3785777910207755 -1.394624310051937 -2.62505947368421
H -2.4785777910207756 -1.394624310051937 -2.62505947368421
H -3.6715891300322165 -0.5436575920125519 -2.62505947368421
O 1.2615144579076643 2.6958737255553484 -3.3750594736842108
H 2.161514457907664 2.6958737255553484 -3.3750594736842108
H 0.9685031188962232 3.546840443594734 -3.3750594736842108
O 0.5381925955055223 -1.7160212558910213 -4.12505947368421
H 1.4381925955055224 -1.7160212558910213 -4.12505947368421
H 0.24518125649408135 -0.8650545378516361 -4.12505947368421



