%chk=Fe_2_B2PLYP_2_5.chk
#p B2PLYP 6-31+G(2df,p) scf=(maxcycles=500,xqc,maxconventional=50) scrf=(cpcm,solvent=water)

Fe_2_B2PLYP_solvated_radius_4

2 5
Fe        -0.00015        0.00007       -0.00002
O         -0.44574       -1.75311        1.15747
H         -0.46359       -1.81171        2.12146
O          2.09784       -0.52417        0.01318
H          2.79314       -0.13594       -0.53316
O         -0.27710       -1.15530       -1.76132
H         -1.10986       -1.29579       -2.23073
O          0.44629        1.75303       -1.15743
H          0.66443        2.63075       -0.81817
O         -2.09800        0.52421       -0.01318
H         -2.79292        0.13718        0.53464
O          0.27726        1.15517        1.76136
H          1.11047        1.29567        2.22994
H         -0.39616        1.67561        2.21873
H          2.52185       -1.19302        0.56592
H         -0.66845       -2.62981        0.81806
H         -2.52250        1.19152       -0.56745
H          0.39676       -1.67588       -2.21792
H          0.46636        1.81111       -2.12137
O 1.798433137031744 -2.1578947368445555e-05 4.125000526315789
H 2.698433137031744 -2.1578947368445555e-05 4.125000526315789
H 1.5054217980203028 0.8509451390920167 4.125000526315789
O -2.1947601946137114 -2.0105983270579286 3.3750005263157896
H -1.2947601946137115 -2.0105983270579286 3.3750005263157896
H -2.4877715336251525 -1.1596316090185435 3.3750005263157896
O 0.31954152551276416 3.641031271389042 2.625000526315789
H 1.2195415255127642 3.641031271389042 2.625000526315789
H 0.02653018650132316 4.491997989428427 2.625000526315789
O 2.4889779559551966 -3.2464573776222703 1.8750005263157894
H 3.3889779559551965 -3.2464573776222703 1.8750005263157894
H 2.1959666169437555 -2.395490659582885 1.8750005263157894
O -4.290504979799605 0.7589076882102733 1.1250005263157894
H -3.3905049797996054 0.7589076882102733 1.1250005263157894
H -4.583516318811046 1.6098744062496584 1.1250005263157894
O 3.783688497816627 2.4068536715935895 0.37500052631578973
H 4.683688497816627 2.4068536715935895 0.37500052631578973
H 3.490677158805186 3.2578203896329745 0.37500052631578973
O -1.1641596722268877 -4.330623827545784 -0.3749994736842103
H -0.26415967222688763 -4.330623827545784 -0.3749994736842103
H -1.4571710112383287 -3.479657109506399 -0.3749994736842103
O -2.008224568933514 3.8666855315230415 -1.1249994736842102
H -1.108224568933514 3.8666855315230415 -1.1249994736842102
H -2.301235907944955 4.717652249562427 -1.1249994736842102
O 3.8425409175692993 -1.4033127045990343 -1.8749994736842113
H 4.7425409175693 -1.4033127045990343 -1.8749994736842113
H 3.5495295785578582 -0.5523459865596492 -1.8749994736842113
O -3.3785309489155124 -1.3946285205782532 -2.6249994736842095
H -2.4785309489155125 -1.3946285205782532 -2.6249994736842095
H -3.6715422879269535 -0.543661802538868 -2.6249994736842095
O 1.2615613000129275 2.6958695150290324 -3.3749994736842104
H 2.1615613000129277 2.6958695150290324 -3.3749994736842104
H 0.9685499610014865 3.5468362330684178 -3.3749994736842104
O 0.5382394376107855 -1.7160254664173373 -4.124999473684211
H 1.4382394376107857 -1.7160254664173373 -4.124999473684211
H 0.24522809859934452 -0.8650587483779522 -4.124999473684211



