%chk=Fe_2_B3PW91_2_5.chk
#p B3PW91 6-31+G(2df,p) empiricaldispersion=gd3 scf=(maxcycles=500,xqc,maxconventional=50) scrf=(cpcm,solvent=water)

Fe_2_B3PW91_solvated_radius_4

2 5
Fe        -0.00009        0.00027       -0.00012
O         -1.86179        0.02868       -1.04801
H         -1.97224        0.04279       -2.00661
O          0.01417        2.14104        0.03262
H          0.58240        2.70209        0.57446
O         -1.07207       -0.02208        1.81789
H         -1.39768       -0.80645        2.27744
O          1.86145       -0.02922        1.04836
H          2.74400       -0.03076        0.65553
O         -0.01429       -2.14081       -0.03285
H         -0.58435       -2.70211       -0.57246
O          1.07267        0.02181       -1.81763
H          1.39927        0.80556       -2.27745
H          1.38650       -0.75131       -2.30362
H         -0.54691        2.72560       -0.49136
H         -2.74368        0.03033       -0.65598
H          0.54962       -2.72512        0.48906
H         -1.38731        0.75045        2.30386
H          1.97165       -0.04337        2.00725
O 1.7985062949264807 -0.00013736842105254875 4.12502
H 2.6985062949264806 -0.00013736842105254875 4.12502
H 1.5054949559150397 0.8508293496183327 4.12502
O -2.1946870367189746 -2.0107141165316125 3.37502
H -1.2946870367189747 -2.0107141165316125 3.37502
H -2.4876983757304156 -1.1597473984922273 3.37502
O 0.319614683407501 3.640915481915358 2.6250199999999997
H 1.219614683407501 3.640915481915358 2.6250199999999997
H 0.02660334439605999 4.491882199954743 2.6250199999999997
O 2.4890511138499334 -3.246573167095954 1.87502
H 3.3890511138499333 -3.246573167095954 1.87502
H 2.1960397748384923 -2.3956064490565687 1.87502
O -4.2904318219048685 0.7587918987365893 1.12502
H -3.3904318219048686 0.7587918987365893 1.12502
H -4.5834431609163095 1.6097586167759745 1.12502
O 3.783761655711364 2.4067378821199057 0.3750200000000003
H 4.683761655711364 2.4067378821199057 0.3750200000000003
H 3.490750316699923 3.2577046001592906 0.3750200000000003
O -1.1640865143321508 -4.330739617019468 -0.37497999999999976
H -0.2640865143321508 -4.330739617019468 -0.37497999999999976
H -1.4570978533435919 -3.479772898980083 -0.37497999999999976
O -2.008151411038777 3.8665697420493577 -1.1249799999999996
H -1.1081514110387771 3.8665697420493577 -1.1249799999999996
H -2.301162750050218 4.717536460088743 -1.1249799999999996
O 3.842614075464036 -1.4034284940727184 -1.8749800000000008
H 4.7426140754640365 -1.4034284940727184 -1.8749800000000008
H 3.549602736452595 -0.5524617760333332 -1.8749800000000008
O -3.3784577910207756 -1.3947443100519372 -2.624979999999999
H -2.4784577910207757 -1.3947443100519372 -2.624979999999999
H -3.6714691300322166 -0.543777592012552 -2.624979999999999
O 1.2616344579076644 2.6957537255553485 -3.37498
H 2.1616344579076645 2.6957537255553485 -3.37498
H 0.9686231188962233 3.546720443594734 -3.37498
O 0.5383125955055224 -1.7161412558910214 -4.12498
H 1.4383125955055225 -1.7161412558910214 -4.12498
H 0.24530125649408135 -0.8651745378516362 -4.12498



