%chk=Fe_2_M08-HX_2_5.chk
#p M08HX 6-31+G(2df,p) scf=(maxcycles=500,xqc,maxconventional=50) scrf=(cpcm,solvent=water)

Fe_2_M08-HX_solvated_radius_4

2 5
Fe        -0.00017       -0.00091       -0.00069
O         -1.16036        1.36077        1.18379
H         -1.32897        2.28595        0.97271
O         -0.58109       -1.66307        1.21763
H         -1.27271       -2.29976        1.00410
O         -1.75465       -0.34395       -1.18797
H         -1.80818       -0.81442       -2.02622
O          1.15670       -1.36176       -1.18676
H          1.58419       -1.17037       -2.02902
O          0.58659        1.66390       -1.21490
H          1.30073        2.27831       -1.01383
O          1.75316        0.34660        1.18884
H          1.80190        0.81717        2.02707
H          2.64164        0.04050        0.97845
H         -0.21110       -1.91727        2.06843
H         -1.60381        1.16885        2.01744
H          0.19431        1.94057       -2.04997
H         -2.64316       -0.04490       -0.96837
H          1.34670       -2.28108       -0.96783
O 1.7985273475580597 0.0002699999999999224 4.125678947368421
H 2.6985273475580596 0.0002699999999999224 4.125678947368421
H 1.5055160085466186 0.851236718039385 4.125678947368421
O -2.1946659840873957 -2.01030674811056 3.3756789473684212
H -1.2946659840873957 -2.01030674811056 3.3756789473684212
H -2.4876773230988367 -1.159340030071175 3.3756789473684212
O 0.31963573603907985 3.6413228503364103 2.625678947368421
H 1.21963573603908 3.6413228503364103 2.625678947368421
H 0.026624397027638858 4.492289568375796 2.625678947368421
O 2.4890721664815123 -3.2461657986749017 1.875678947368421
H 3.389072166481512 -3.2461657986749017 1.875678947368421
H 2.1960608274700713 -2.395199080635517 1.875678947368421
O -4.29041076927329 0.7591992671576416 1.125678947368421
H -3.39041076927329 0.7591992671576416 1.125678947368421
H -4.583422108284731 1.610165985197027 1.125678947368421
O 3.783782708342943 2.407145250540958 0.37567894736842133
H 4.683782708342943 2.407145250540958 0.37567894736842133
H 3.490771369331502 3.2581119685803435 0.37567894736842133
O -1.164065461700572 -4.330332248598416 -0.3743210526315787
H -0.2640654617005719 -4.330332248598416 -0.3743210526315787
H -1.457076800712013 -3.479365530559031 -0.3743210526315787
O -2.008130358407198 3.86697711047041 -1.1243210526315786
H -1.1081303584071982 3.86697711047041 -1.1243210526315786
H -2.301141697418639 4.717943828509795 -1.1243210526315786
O 3.842635128095615 -1.4030211256516658 -1.8743210526315797
H 4.742635128095615 -1.4030211256516658 -1.8743210526315797
H 3.549623789084174 -0.5520544076122806 -1.8743210526315797
O -3.3784367383891967 -1.3943369416308846 -2.624321052631578
H -2.4784367383891968 -1.3943369416308846 -2.624321052631578
H -3.6714480774006377 -0.5433702235914994 -2.624321052631578
O 1.2616555105392433 2.696161093976401 -3.3743210526315788
H 2.1616555105392434 2.696161093976401 -3.3743210526315788
H 0.9686441715278022 3.547127812015786 -3.3743210526315788
O 0.5383336481371013 -1.7157338874699688 -4.124321052631579
H 1.4383336481371014 -1.7157338874699688 -4.124321052631579
H 0.24532230912566028 -0.8647671694305836 -4.124321052631579



