19
Fe_3_bpw91.log	Energy: -1080499.8429069
Fe        -0.00000       -0.00000        0.00000
O          0.44241       -1.97765       -0.41401
H          0.02845       -2.53711       -1.10862
O         -1.45401       -0.60589        1.34063
H         -2.03414       -0.02216        1.87811
O          1.40363       -0.00432        1.51924
H          2.35562        0.22616        1.43698
O         -0.44257        1.97761        0.41420
H         -1.10345        2.53874       -0.04901
O          1.45396        0.60597       -1.34060
H          2.03350        0.02223       -1.87874
O         -1.40328        0.00434       -1.51956
H         -2.35550       -0.22533       -1.43754
H         -1.24507        0.23666       -2.46147
H         -1.69613       -1.53242        1.56228
H          1.10539       -2.53786        0.04728
H          1.69664        1.53251       -1.56158
H          1.24593       -0.23718        2.46110
H         -0.03224        2.53547        1.11179
