19
Fe_3_HSE06.log	Energy: -1080048.6039351
Fe         0.00001       -0.00001        0.00000
O          0.55328        1.63385       -1.07430
H          0.14125        1.95020       -1.89721
O          1.28242       -1.14621       -1.08237
H          1.43285       -2.10175       -0.97571
O          1.47645        0.38326        1.34274
H          1.40137        0.93407        2.14149
O         -0.55338       -1.63379        1.07436
H         -1.28000       -2.24520        0.86170
O         -1.28237        1.14622        1.08238
H         -1.43321        2.10171        0.97512
O         -1.47640       -0.38329       -1.34279
H         -1.40127       -0.93394       -2.14165
H         -2.38999       -0.05001       -1.30669
H          1.85993       -0.84181       -1.80408
H          1.27981        2.24535       -0.86157
H         -1.85972        0.84178        1.80435
H          2.38999        0.04981        1.30673
H         -0.14121       -1.95025        1.89717
