19
Fe_3_wB97.log	Energy: -1080455.7951935
Fe         0.00000       -0.00022       -0.00006
O         -0.04233        0.80241        1.87013
H         -0.49983        0.43329        2.64788
O         -1.67592        1.04795       -0.48704
H         -2.13585        1.03689       -1.34657
O          1.15508        1.54976       -0.63859
H          2.12928        1.58627       -0.63168
O          0.04468       -0.80148       -1.87053
H         -0.38816       -1.62681       -2.15682
O          1.67485       -1.04851        0.48963
H          2.13286       -1.03692        1.35019
O         -1.15636       -1.54972        0.63652
H         -2.13060       -1.58511        0.62863
H         -0.83936       -2.39460        1.00551
H         -2.16791        1.65465        0.09632
H          0.39163        1.62773        2.15472
H          2.16795       -1.65581       -0.09216
H          0.83676        2.39386       -1.00822
H          0.50319       -0.43107       -2.64708
