19
Fe_3_OTPSS.log	Energy: -1080472.2559592
Fe        -0.00002       -0.00005        0.00014
O         -1.32181        1.02480       -1.23727
H         -2.29112        0.93093       -1.25844
O          0.17776       -1.49873       -1.43179
H          0.72425       -2.30257       -1.36855
O          1.59686        1.01557       -0.86440
H          1.97661        1.86253       -0.56899
O          1.32320       -1.02311        1.23723
H          1.09477       -1.69173        1.90775
O         -0.18028        1.49890        1.43132
H         -0.72663        2.30269        1.36622
O         -1.59569       -1.01731        0.86458
H         -1.97421       -1.86472        0.56889
H         -2.10927       -0.73962        1.64429
H         -0.26985       -1.53331       -2.29624
H         -1.09172        1.69234       -1.90829
H          0.26454        1.53364        2.29720
H          2.11050        0.73652       -1.64358
H          2.29222       -0.92641        1.25890
