19
Fe_3_B3PW91.log	Energy: -1080336.7088436
Fe        -0.00001       -0.00007        0.00033
O         -1.27999       -1.15218       -1.08346
H         -1.35467       -2.12297       -1.04761
O          1.39197       -0.15731       -1.47552
H          2.27922        0.24529       -1.47791
O         -0.75185        1.66911       -0.88798
H         -1.50107        2.20495       -0.57042
O          1.27616        1.15535        1.08469
H          1.93082        0.84043        1.73396
O         -1.39240        0.15355        1.47565
H         -2.28170       -0.24450        1.47334
O          0.75612       -1.66838        0.88594
H          1.50860       -2.19931        0.56783
H          0.43341       -2.08400        1.70596
H          1.29428       -0.64984       -2.31049
H         -1.93220       -0.83454       -1.73386
H         -1.29324        0.63814        2.31509
H         -0.42826        2.08043       -1.70981
H          1.34489        2.12666        1.05068
