19
Fe_3_BLYP.log	Energy: -1080428.9464291
Fe        -0.00000        0.00001        0.00001
O          0.84815        1.57230       -1.05342
H          0.50151        1.97531       -1.88415
O          1.11172       -1.34832       -1.11684
H          1.10122       -2.33059       -1.02897
O          1.53206        0.10796        1.39363
H          1.53953        0.65409        2.21483
O         -0.84818       -1.57221        1.05352
H         -1.67373       -2.05749        0.81762
O         -1.11176        1.34831        1.11681
H         -1.10136        2.33055        1.02891
O         -1.53197       -0.10806       -1.39372
H         -1.53927       -0.65417       -2.21493
H         -2.38990        0.37722       -1.35977
H          1.74989       -1.12764       -1.83567
H          1.67384        2.05739       -0.81761
H         -1.74999        1.12764        1.83556
H          2.38991       -0.37745        1.35960
H         -0.50173       -1.97493        1.88447
