19
Fe_3_wB97X.log	Energy: -1080398.7208793
Fe         0.00027       -0.00008       -0.00016
O          0.94200       -0.91877        1.55096
H          1.78339       -1.40585        1.50923
O         -1.01763       -1.71540       -0.39888
H         -1.67303       -1.84626       -1.10617
O         -1.48598        0.59168        1.25660
H         -1.51652        1.42133        1.76421
O         -0.94590        0.92070       -1.54741
H         -0.64504        0.95272       -2.47229
O          1.02095        1.71429        0.39535
H          1.66972        1.84840        1.10808
O          1.48606       -0.59236       -1.25631
H          1.51375       -1.41978       -1.76771
H          2.30163       -0.10122       -1.45768
H         -0.93945       -2.55803        0.08157
H          0.63435       -0.95280        2.47353
H          0.95173        2.55292       -0.09330
H         -2.29880        0.09765        1.46200
H         -1.78466        1.41177       -1.49968
