19
Fe_3_M05.log	Energy: -1080357.3238223
Fe        -0.00002       -0.00000       -0.00001
O         -1.45133       -0.24937       -1.41742
H         -2.13858       -0.93885       -1.43098
O          1.24800       -1.22163       -1.06204
H          2.15757       -1.47326       -0.82312
O          0.71783        1.61962       -1.01939
H          0.44504        2.54708       -0.90461
O          1.45137        0.24926        1.41740
H          1.59321       -0.30117        2.20778
O         -1.24784        1.22172        1.06214
H         -2.15708        1.47419        0.82290
O         -0.71799       -1.61961        1.01930
H         -0.44714       -2.54741        0.90260
H         -1.39750       -1.61328        1.71647
H          1.04889       -1.66484       -1.90565
H         -1.59035        0.29827       -2.21023
H         -1.04890        1.66416        1.90619
H          1.39936        1.61361       -1.71461
H          2.13557        0.94167        1.43358
