19
Fe_3_PBE0.log	Energy: -1080014.7594378
Fe         0.00006       -0.00001       -0.00018
O         -1.16544        0.83251        1.43850
H         -1.69526        0.35461        2.10010
O         -1.58283       -0.01443       -1.27101
H         -1.58481       -0.34180       -2.18732
O          0.51218        1.85075       -0.65837
H          1.26726        2.38319       -0.35311
O          1.16457       -0.83330       -1.43884
H          1.29901       -1.78465       -1.59263
O          1.58129        0.01623        1.27284
H          1.57919        0.33851        2.19096
O         -0.50988       -1.85174        0.65723
H         -1.26606       -2.38391        0.35425
H         -0.04295       -2.37243        1.33374
H         -2.48111        0.30507       -1.07655
H         -1.29834        1.78373        1.59451
H          2.48201       -0.29647        1.07861
H          0.04838        2.37038       -1.33785
H          1.69207       -0.35607       -2.10277
