19
Fe_3_SPW91.log	Energy: -1075140.1849276
Fe         0.00004        0.00006        0.00006
O         -1.26241       -0.63375       -1.37295
H         -1.28575       -1.53932       -1.77377
O          1.23919        0.59275       -1.41188
H          2.11939        1.02577       -1.27408
O         -0.86772        1.76841       -0.01850
H         -1.62811        2.05328        0.54888
O          1.26259        0.63351        1.37300
H          1.98929        0.10398        1.78866
O         -1.23998       -0.59292        1.41112
H         -2.11970       -1.02655        1.27215
O          0.86826       -1.76810        0.01911
H          1.62786       -2.05335       -0.54913
H          0.62437       -2.53411        0.59791
H          1.09571        0.51247       -2.38872
H         -1.98876       -0.10429       -1.78931
H         -1.09790       -0.51246        2.38815
H         -0.62267        2.53500       -0.59603
H          1.28578        1.53879        1.77448
