19
Fe_3_OLYP.log	Energy: -1080539.8959014
Fe         0.00001       -0.00003       -0.00001
O         -0.12089       -1.26809        1.65893
H         -0.74426       -1.19177        2.40739
O          1.37469        1.20263        1.01933
H          1.80438        2.01241        0.68146
O          1.57252       -1.14842       -0.76390
H          1.49638       -1.91938       -1.35926
O          0.12003        1.26900       -1.65828
H         -0.43523        2.05359       -1.83350
O         -1.37367       -1.20327       -1.02006
H         -1.80144       -2.01442       -0.68356
O         -1.57269        1.14823        0.76402
H         -1.49659        1.91967        1.35875
H         -2.52614        1.01730        0.59542
H          1.71158        1.06395        1.92590
H          0.43506       -2.05177        1.83596
H         -1.71151       -1.06371       -1.92601
H          2.52590       -1.01822       -0.59444
H          0.74181        1.19251       -2.40805
