19
Fe_3_B2PLYP.log	Energy: -1079755.1368453
Fe        -0.00001       -0.00001        0.00001
O         -1.31637       -0.53717        1.45646
H         -1.17721       -0.46513        2.41858
O          0.79323       -1.87427        0.02552
H          1.52593       -2.20083       -0.52832
O         -1.33468       -0.58411       -1.42131
H         -2.01993       -0.02837       -1.83582
O          1.31641        0.53711       -1.45644
H          2.20506        0.91502       -1.32339
O         -0.79315        1.87430       -0.02563
H         -1.52582        2.20098        0.52817
O          1.33458        0.58414        1.42139
H          2.01981        0.02845        1.83598
H          1.40898        1.47230        1.81619
H          0.51213       -2.61475        0.59377
H         -2.20503       -0.91507        1.32343
H         -0.51199        2.61469       -0.59396
H         -1.40916       -1.47225       -1.81612
H          1.17728        0.46503       -2.41856
