167
 energy: -248.298437880108 gnorm: 0.000890180686 xtb: 6.6.0 (conda-forge)
Fe           5.63632505922703        7.20907439648612        3.83800843139750
Si           6.47002666179203        5.85898479459520        2.14451335202488
O            4.76576413774695        9.94641535548479        4.48964726794913
O            8.40255297206117        7.40020214905019        4.72420229982423
O            5.08143542197793        5.90495598756965        6.39300670742365
O            3.10475485385057        6.48004360342265        2.60765738733162
N            7.22532513584473        7.36890779505479        1.17036812333332
N            8.25481270308397        5.67860533168872        1.93484170635903
N            9.64649868798655        7.43076739910477        1.06185215201181
N            5.94429208991282        4.08224630291708        2.60758995252630
N            5.42012423247690        5.14189439897231        0.84860430862140
N            4.26965633572547        3.06001554612169        1.18850029417641
C            8.45152001176242        6.88269564714475        1.37053382624065
C            6.77581238228991        8.74670813436690        0.99999029202672
H            5.73954739866842        8.70561011403990        1.37098289456147
C            7.53168626197580        9.75099467777275        1.86475411066721
H            8.55540457222044        9.86901482495220        1.52589129536095
H            7.53208053655404        9.43685744132183        2.90921340149479
H            7.03706012861255       10.71634203724791        1.79646609628329
C            6.72701189656266        9.26257245681753       -0.44611110053839
H            7.66643748271076        9.72330212061485       -0.73503171895993
H            5.95699172070043       10.02871159127930       -0.50382347547680
H            6.48067138331479        8.47166258216336       -1.14569579846087
C            9.22003915762959        4.59825441048423        2.02096120906913
H           10.15496903501132        4.95210024174902        1.58268206755239
C            9.46401772780034        4.20693362546913        3.47528451512253
H           10.17824198590735        3.38878566156087        3.51640944302184
H            8.53246292699991        3.90100387239721        3.93594247034407
H            9.86328241162194        5.04351986961820        4.04407602646045
C            8.74991803730467        3.40204664610534        1.19799058807267
H            8.70440619058286        3.66742654108949        0.14570681234131
H            7.76555249154119        3.08833569060976        1.52249510861823
H            9.45197000405273        2.58369634690011        1.32651861046674
C            9.80615406564315        7.88033212423274       -0.32588004610704
H            8.78890572104728        8.04420086426707       -0.67793827818802
C           10.58955712859570        9.16947856132823       -0.53274306026631
H           11.64405793551482        9.04772289666019       -0.30617854084975
H           10.19434712674976        9.99204563425993        0.05721490182344
H           10.50681444585126        9.43533374454722       -1.58447440826741
C           10.38779151476190        6.76541208832892       -1.20384792421652
H           10.26172123754840        7.05330765694977       -2.24424111323781
H            9.86038499618352        5.83128398870150       -1.02964052025097
H           11.44597401517141        6.62183412299415       -1.01789464143628
C           10.72578412584575        7.36972289417300        2.05307342208727
H           10.35812237446800        6.71748643710870        2.84813247891198
C           10.94956586289165        8.73652858120837        2.70999630960300
H           11.28245955178288        9.47839224212951        1.99388657193991
H           11.71603229568898        8.62486465488352        3.47277147278065
H           10.03931250073067        9.08662983346877        3.18873515534895
C           12.06202953577508        6.82134489731200        1.55877334380042
H           11.95927404992822        5.84268428405846        1.09966715884135
H           12.71845519487025        6.72554456680114        2.42050983433736
H           12.53862211844856        7.49653526539549        0.85546118569936
C            5.14590814304208        4.02143016777245        1.54106035759840
C            5.78354955491807        3.48353246526585        3.92293380556941
H            6.29526008154290        4.20350201007743        4.57501133000175
C            4.32705227864967        3.40630046146464        4.37033194074547
H            3.78712330259241        2.66671037631020        3.79012568888888
H            3.84366512526936        4.37447779294405        4.25320663169653
H            4.28227783755377        3.12291697008502        5.41941656561973
C            6.46569813733824        2.12162730333709        4.12451969776726
H            5.80943921479731        1.29809556674078        3.85826197348196
H            6.70667006447917        2.01571902611043        5.17883522541219
H            7.38503865490566        2.04807136658635        3.55291908330994
C            5.16011912506671        5.35933803495363       -0.56512515227286
H            4.63749087132844        4.47809334098659       -0.94191397782189
C            4.27949427261634        6.58942646653597       -0.76791550332208
H            4.17787167773160        6.79921533234467       -1.82835266338272
H            4.71987652535071        7.44575865309413       -0.27136212680747
H            3.28584640191623        6.43143267372191       -0.35481920372543
C            6.47685741264671        5.46724825458785       -1.32946607981490
H            6.27945773115016        5.60892229092234       -2.38902608197796
H            7.04917047799333        4.55273334887593       -1.20316833418193
H            7.06453221981088        6.29663049114897       -0.95612200596562
C            2.96501730035353        3.46250900950997        0.65024217843239
H            3.02892323903079        4.54428260296805        0.52063926308508
C            2.57085791093946        2.83359379303668       -0.68376421022817
H            3.34722364206573        2.94699274773535       -1.43408969596289
H            1.67877857229618        3.34052371603022       -1.04532188591714
H            2.33600500755109        1.77932105942615       -0.57531653868685
C            1.84347169765835        3.23681748326799        1.67099004517723
H            0.93324894487983        3.68153702298689        1.27717854194758
H            2.08121559263547        3.72012428261234        2.61418888595459
H            1.65937231691965        2.18243487281870        1.84139112929573
C            4.77591724623718        1.68238532596788        1.21617504690523
H            5.62503222982125        1.71809693879656        1.89689209870900
C            5.33538285331088        1.27917719978365       -0.15333704702462
H            4.54227128627905        1.05668836132393       -0.85821547110423
H            5.94192523727355        0.38611473662069       -0.03220632857428
H            5.96055894215455        2.07398845560576       -0.55179732067517
C            3.80327539804960        0.62751457033187        1.72640217437902
H            3.01282830013287        0.42253116406819        1.01090619926792
H            3.36001702290492        0.91642091874904        2.67485854012769
H            4.35638436488445       -0.29505021289523        1.89017524356269
C            5.14169580586649        8.90269516050238        4.20090700359418
C            7.31768438634304        7.35556229047520        4.35286167553933
C            5.29828361362959        6.31185536280905        5.34529594135116
C            4.10616968757886        6.79640150735626        3.07262817375612
O            8.02380107434243        5.71692929804697        8.59532098456106
H            8.56478176158867        4.93013984675934        8.47189395897434
H            7.68261990385009        5.68105359315616        9.49406276301784
O            3.77619744075420        2.64856112291898        7.78408088885514
H            4.34129909499984        2.45243616467413        8.53750713624248
H            2.90825757244609        2.86759461415028        8.13591368084015
O            7.29674614283433       10.33386092707703        6.28920255218211
H            7.76358328960011       11.17536914546789        6.24877200903978
H            7.22672553565001       10.11139554232800        7.22235345542621
O           10.14757707543269        0.50380277014432        8.17230934099129
H            9.61457156721636       -0.26471261680847        7.94607897938907
H           10.53786667335989        0.82449984442441        7.35250193927162
O            2.73264459796748        7.73620197459094        5.53071646679737
H            2.72991991401165        7.83868081281009        6.48673651045616
H            1.80642693918097        7.69875147107992        5.26953561725335
O           13.67557287928683        7.63669279344703        4.80278369929956
H           14.52365700408191        8.08651708514151        4.86515749854772
H           13.50913423884482        7.23020728012408        5.65881621088733
O            5.61292513635834       -2.03654543640552        3.10172939886320
H            6.48726912069269       -2.41590984922012        2.96949658264451
H            5.18251910091990       -2.55724487437910        3.78608820265770
O            3.24465373131483       12.68847484723989        4.42726550067567
H            3.57955208497428       11.79507679507769        4.56708933146605
H            4.01454223631799       13.24304167682188        4.26521384415492
O           12.25772607208219        1.91109469517865        3.03175602974506
H           12.70775886931897        1.44045328939329        2.32344989347708
H           12.94452666932394        2.26020629262026        3.60740754629921
O           -1.56085958397036        4.40968221349932        5.82291881809985
H           -1.87022908436943        4.50594816052690        4.91685651437753
H           -1.11925785533949        3.55670576752721        5.87922002004338
O           10.08320304833643       12.44902527113970        0.93946958298625
H           10.37137768936115       12.99974472900803        1.67328640489154
H            9.95884519933025       13.03605867147780        0.18722319218689
O            9.92976515539184       -2.68801981498319       -0.23336028655769
H           10.15448932972483       -1.83160025232046        0.14555052151453
H            9.80775033665958       -2.55147881008793       -1.17804561152423
O           -0.93069236676964        9.83440823392378        0.65488429722486
H           -0.30012631924478        9.27476128654124        1.11983088286046
H           -1.19703556447174       10.52722565681231        1.26657479982043
O           14.16379903644480        8.85957825914156       -0.45076804057295
H           14.57837351462983        8.71341263377406       -1.30661166790436
H           14.77362282905008        9.39503794863810        0.06525181238692
O            1.50376675715074       -0.57520615162875       -0.71962030382894
H            1.79516184334944       -1.44497727282177       -1.01059772050643
H            0.54976832325995       -0.54932819047200       -0.83962442643256
O            4.36182400720722       11.81905204548439       -0.32452641470878
H            4.51101973236928       12.74015189704088       -0.55735326969757
H            3.42034126196870       11.72191026101625       -0.15384366502177
O           12.84438633870363        1.11824165945629       -2.49121064770481
H           12.68431153325708        0.57754181875074       -3.27055203201940
H           12.04241352544207        1.62867090279405       -2.33458531511905
O           -0.02548211620546        4.93478729702023       -1.98513127335771
H            0.08814952017667        5.02722877710168       -2.93626311651069
H           -0.65739074151096        5.60848146634261       -1.71609470155113
O           10.06134580928606        8.68040567513822       -4.22722666686633
H           10.77645993426403        8.83673795954138       -4.85066554264066
H            9.24671623402823        8.65291585324485       -4.73885632823076
O            8.10603016368910        0.33384622382842       -4.55142506581337
H            7.77672159858069        1.23462105997174       -4.63567755921158
H            7.33851066539258       -0.23778604399227       -4.45527591391113
O            3.88230024219649       10.43628350516148       -5.36932571626061
H            4.71589545832359       10.53723055114737       -4.89771846196893
H            3.19194006955844       10.36640283006846       -4.70234606623815
O           11.81145323818653        4.52853437409045       -6.50613395251541
H           12.52762441986262        4.56291768614962       -5.86415532356375
H           11.00314269147587        4.35222467909753       -6.01315098254405
O            5.97916742796981        5.44792934882783       -5.92885391456424
H            6.45505356085948        5.17434473595790       -6.71845940796148
H            5.29527690391503        6.06333552564632       -6.21119425067846
