160
 energy: -250.519184117072 gnorm: 0.019005308203 xtb: 6.6.0 (conda-forge)
Fe           0.81224484968868        1.14265179395533        9.44392283412210
P            1.05580197754747       -0.77649034691662        8.47013448800493
P            1.94297004060517        0.56357431777588       11.33977507588546
P            2.54779977266605        2.04354235939137        8.54357757021775
O            1.61582892241501       -1.09473307991885        6.96529684920674
O            2.03216397299157       -1.80901507770745        9.24291282898616
O           -0.42264034305102       -1.47460761234518        8.38761036172157
C            1.34147957268066       -1.01933865369720       12.05610469582545
C            0.39112313290472       -3.43519752485404       13.06221288047464
H            0.03088463808363       -4.37822595009458       13.44645596901231
C            3.55693105248705        6.28071669200053       10.09321334093824
H            3.76601051974617        7.27469223698326       10.46098158751925
C            2.05469711802861        1.44367319405544       12.94397008223929
C            2.80425067753854        5.39862636843748       10.85847055440524
H            2.39652470870467        5.70327028690544       11.81193951718066
C            2.01637185695461       -1.66802238430868       13.08468879668277
H            2.90961459540833       -1.23076818239071       13.50773319561462
C           -0.30148655924920       -2.78274046727833       12.05612661638416
H           -1.20710448116400       -3.21004736175005       11.65294275350733
C            0.84543363381366        1.63211551465895       13.62187115869442
H           -0.05367125840235        1.20924976279197       13.19809876672914
C            2.98691952048023        3.73343748190682        9.12108623029939
C            2.56704669498785        2.32250392389250        6.74062882086704
C            2.53685773146049        4.12901283335540       10.37388022758426
H            1.95518039611523        3.43116515987368       10.95937401035244
C            4.03730013971689        5.88288010366072        8.85435736946327
H            4.62832294664797        6.56604569668377        8.26247126444304
C            1.54458877898130       -2.86982202917867       13.58129235201262
H            2.07970118265621       -3.36889589591111       14.37662172043912
C            3.20850380264697        2.01028880459666       13.48709920410263
H            4.15903756823125        1.88164860098952       12.98839362483961
C           -0.39238802413375        3.04959324136289        9.24698629853917
H            0.00260316703056        3.98756350578325        8.89613068897652
C            3.75013956613305        4.61882983567267        8.36811358096257
H            4.11021063939267        4.32110521476017        7.39370032574418
C            1.95250736454176        2.85825473444944       15.35554879679989
H            1.92042752211188        3.38862548798728       16.29544654845535
C            3.12777753827043        1.68345390406300        4.48825284062034
H            3.67691215386937        1.04235007835818        3.81445880799526
C            1.52521293522870        3.42706657488622        4.86334308872004
H            0.84644167930752        4.17745581481199        4.48199136573146
C            0.16876229003491       -1.57681809470668       11.56466941831232
H           -0.36748924681325       -1.06155565469256       10.78166617838565
C            2.38531375249889       -3.13709094781355        8.85600429698040
H            1.71481945543425       -3.85456766789378        9.32953172625419
H            3.40279776909083       -3.30888275553183        9.21221232856184
H            2.34820438371767       -3.26546897076443        7.77594692151244
C            3.15847635757610        2.69556464582916       14.68803172681805
H            4.06222364259361        3.10333250352307       15.12154701881926
C            1.67842418933569        3.27056871382609        6.22749937197892
H            1.11324617155785        3.89236554963710        6.90585379503967
C           -1.58209513313701        1.11833396680838        9.31479822718522
H           -2.22115101038976        0.29531804166558        9.05005922331446
C            0.78837445612902        2.32533457857094       14.81170923319095
H           -0.15323759563277        2.46522786211626       15.32040190122016
C           -0.57860134758993        2.70533660548393       10.61223257333964
H           -0.24947271516757        3.27887822547671       11.46197031543125
C            0.90739936382170       -0.55857331992844        5.86114919390037
H            0.11614253466073       -1.24117097295832        5.55068502151761
H            1.62142250486046       -0.43860283703131        5.05037456598912
H            0.47949789013225        0.41023926161893        6.12092105743840
C            2.24150524230025        2.62335921879583        3.98539588899541
H            2.09853336438908        2.71910472977013        2.91912504817235
C            4.53392923121557        1.16682229419570       10.31170987722663
H            5.59695506093246        0.92283306006681       10.41337418194134
H            4.37727786030586        2.14972332159393       10.76705857707645
C            4.20097988936466        1.25696598147093        8.82514045294372
H            4.19596028570187        0.25826454067040        8.38684043366914
H            4.95980791035513        1.85936541125039        8.31364855083516
C           -1.07709409754235        2.10395704416837        8.45282529751403
H           -1.22201690893576        2.16744868814204        7.38951089933367
C            3.29491364202505        1.53277978420827        5.85436326696065
H            3.97629909337337        0.78249387870785        6.22190155533024
C            3.72238956437932        0.10412665385193       11.05376597934238
H            4.19487432545471       -0.12052536777987       12.01368540424707
H            3.70605812628662       -0.81374795525003       10.46626628688771
C           -1.29304301324724        1.50295154804147       10.64958079372905
H           -1.65163858183105        0.99719055375646       11.52756386065418
C           -0.66802657498730       -2.78809034507492        7.87954985986352
H            0.08789360686007       -3.08112100747719        7.15362891208008
H           -1.64963851178778       -2.76892689970924        7.40923450576225
H           -0.67690608752896       -3.50267406404152        8.70135262686400
O           -3.73469330452624       -2.78803724354359       11.25581335348425
O            3.91903343799654        6.54830756411989       14.74239377927850
O            1.51531053082289        5.56142368462297       13.81557482305172
O           -3.54698293948748       -3.97754237799465        8.75048804429242
O            5.09501198513649        4.87768077615097       12.90251214280379
O           -2.83490798032010       -0.91701606343095       13.03943618177106
O            0.58562974749078        6.20913507538373        8.31863592060075
O           -1.79483670760110        4.19026825599265       15.98784009188224
O            1.71377741574435       -1.07755075541771        2.35833009520410
O            4.89872964533157        2.95980613010177        2.01940315625889
O            0.44190913537959       -5.84776654805369        7.41062786624349
O            3.23079632951013       -2.37986676362372        4.27753223472382
O            1.71981053316049       -4.15686461650218        5.58632470347269
O           -1.26585891521786        5.14719163731176       13.46018902662708
O           -2.41547059038356       -0.36273174802962        6.38636574889456
O           -4.18798183429232        3.72276576543600       14.85478738705563
O           -3.05090767896120        3.83761572174998       11.90822703301539
O           -2.12653298200312       -2.09300995897961        4.37908689074019
O           -0.77447544822844       -0.31053385591086        2.74404874978434
O            3.41252781359401        0.78250727922480        1.10584690754210
O            4.56062856728546       -1.38531844052589        6.54696682417337
O           -1.22726963218623        1.55406948897940        4.74291560903847
O           -3.92833980456393        1.62495691083098       13.06057433969085
O           -0.67966183735768       -4.40642485250910        4.46081780658062
O           -3.77826325299584       -4.27363777238789        4.76803850138625
O           -2.22029722141036       -5.36405740071587        6.74814228700931
H           -3.39697610135699       -2.05398077373634       11.80334214365572
H           -4.18162759125696       -3.37340893906267       11.86636577666128
H            4.44219382614526        5.98620647009201       14.14665426633181
H            4.28627534975303        7.43881555441800       14.67356709405285
H            2.24120559794247        6.06216800629276       14.22889208510027
H            1.51363118231595        4.71279768417320       14.27977581167852
H           -4.17634705724434       -3.46267068795601        8.24230887587027
H           -3.50429390988342       -3.55465239779623        9.62441253235944
H            4.94857671924944        3.97092122547490       13.20379183544688
H            4.52334842765213        5.01194683949376       12.13518690451009
H           -1.87676186257805       -0.85960010593396       13.09374817088727
H           -3.18787203949958       -0.01079350564855       13.10999988818599
H           -0.08520249190191        6.54209889446335        8.91152107187717
H            1.41753595086087        6.24510175218718        8.78909668876720
H           -1.90854698971568        4.88349079950600       16.63914196018430
H           -2.69981679132645        3.93975354342446       15.69612920457342
H            2.22978904517632       -1.51625003285219        3.05832012633432
H            2.28443951982286       -0.39767324414359        1.97026913437395
H            4.86279668111836        2.86270177047143        2.97557398925603
H            4.55353309153772        3.83027736409839        1.81117444982940
H            0.52996242347059       -6.80175681697995        7.40588891232415
H           -0.49211453887018       -5.66640288358389        7.20426854368514
H            3.81976448199037       -2.98036099301313        3.81656707370719
H            2.64648358014114       -2.95472180311510        4.81819457815169
H            1.53670745417624       -4.78554650141461        6.30162299168780
H            0.91390911244108       -4.20774494105708        5.02629344771412
H           -0.33758013045642        5.42144238243074       13.40442313110244
H           -1.36975030342047        4.79985493172182       14.36774698505553
H           -2.14090971864852        0.44043719038281        5.91635924570851
H           -1.79396548432349       -0.47823843542952        7.11426784222226
H           -4.13206489447057        2.84076201558697       14.44828024374743
H           -4.12956937958457        4.34069068245835       14.11975012254968
H           -2.55704554872267        3.56307581364491       11.12472196354672
H           -2.40684648413625        4.33997859698643       12.45091138295012
H           -1.72599241986422       -1.50677993574330        3.71535841860475
H           -2.30544381884037       -1.51275470049290        5.15414310783602
H           -1.09715831850890       -0.19922321507124        1.84885308755287
H            0.16328884737285       -0.61684444253276        2.65635549064789
H            3.80413408625906        0.44087021764619        0.29994559206379
H            3.96859174595025        1.52826442228168        1.38688324734724
H            3.92605242277837       -1.70255628059863        7.20166570184740
H            4.15494260305178       -1.60665107706586        5.69331995715152
H           -1.09119461641713        0.93766755544582        4.00214118061619
H           -0.48092345793485        2.15880184842712        4.73474690051257
H           -4.77845474176163        1.46703998307170       12.64624928129355
H           -3.53303234384601        2.39782806134095       12.57774716063437
H           -1.11127127711058       -4.85962290638659        5.19703138661733
H           -1.12982147373319       -3.54473510887635        4.38760233058747
H           -3.69213978972901       -4.76775998758946        3.94727403699821
H           -3.31788133345414       -3.42638723382453        4.61922897662833
H           -2.58263727416186       -5.00715065893260        7.57453827791662
H           -2.87506504345121       -5.09031038803761        6.07635042210526
