161
 energy: -283.750776625929 gnorm: 0.000945023563 xtb: 6.6.0 (conda-forge)
Mn           0.50214744201993       -0.22826141582977        0.22726154843040
O           -0.70047048175568        0.65458718547740        0.08892065664190
O            0.63073316270240       -1.06714069795340       -0.99969661126194
O            0.34217077956755       -1.11569553821111        1.40724722097140
O            1.68772429260179        0.65104923190648        0.43342738464332
O           -1.79606710098886       -1.82257905371185        0.09357107717228
H           -2.60355358768335       -1.56041813473923        0.58547084850901
H           -2.11232918933309       -2.11894029818987       -0.78959751058898
O            1.14814664249886       -1.60216223012866       -3.52300464934060
H            0.94031132225036       -1.33899950690619       -2.59505054478257
H            1.51884078235544       -0.81281747196153       -3.95463253224127
O           -2.96162434969761        0.36684607718469       -1.42283115723732
H           -2.89407708753894        0.54977930908888       -2.38335082418353
H           -2.06803520759560        0.31530085893265       -1.05453962866597
O           -0.38784986543201       -3.73160290502712        1.73142143370308
H           -0.24314445403313       -2.78177818163742        1.55235708777509
H           -0.93626015117431       -4.05905384376943        0.99936087438383
O            0.87468230062340        1.48128609957135       -2.04995221557538
H            1.53217352692266        2.17941871296304       -1.84985583038995
H            1.23267748940424        1.08049961727539       -2.87345055689817
O           -3.01286167441490        1.38287894815642        1.18265169262394
H           -2.11523380830066        1.11468643047223        0.89796015871947
H           -3.53279904480602        0.55501546397680        1.15827754346798
O            2.90527699711518       -1.70193575878549        0.31178530130824
H            2.68143666924170       -2.50677147953039        0.83419947656077
H            3.06692068237337       -1.98567301229210       -0.61360258977675
O           -0.18637422763436        3.29584692848089        0.02730938005759
H           -0.33992925622588        2.33569874364285       -0.01297857201020
H           -0.99878322242006        3.72054483151788        0.37105047527081
O           -1.55645303077789       -0.82361461445170        3.23642775497428
H           -1.75986109540263        0.11389504616144        3.41492667067883
H           -0.89318975934101       -0.83314250281104        2.52128656470751
O            4.04901385052038        1.46966928520700       -0.26143204156651
H            4.60654425158158        0.81137398912826        0.22926203822893
H            3.12350080478235        1.16528917267458       -0.08681311325164
O            0.24152206309573        1.33370460318294        2.60408071359962
H            0.61551843599526        2.22839899032469        2.53644972952042
H            0.34850981120042        1.09692142376027        3.55371727101194
O            3.11942519446987        0.42362410445643        2.81308941072522
H            2.46006432688906        0.42666976246272        2.09823471937019
H            3.93411189476305        0.05959647224617        2.42828852169281
O           -2.77383303316745       -2.75499239893193       -2.22872483911092
H           -3.67181876657988       -2.38238171730056       -2.09748863684371
H           -2.34881858968697       -2.24372419046443       -2.94900443530084
O           -1.47741140653163       -1.49366469224086       -4.22837533177383
H           -1.64310471387976       -2.26395218585727       -4.81137816453513
H           -0.52294654551780       -1.52181536668483       -4.02077917342291
O           -4.95165401068363       -1.35466560929174       -1.57101993538534
H           -5.38573553979273       -0.97158976387957       -2.35820983972963
H           -4.27627700656997       -0.68167226376895       -1.33290872079029
O           -2.10144187990701       -4.60283572894229       -0.34898869812244
H           -2.39700129318970       -4.13563460880445       -1.14821630917361
H           -2.84736597994114       -4.47784793873266        0.27654374648846
O            2.20968762103629        0.73272402641397       -4.24117974693696
H            3.07741859090468        0.60637746948891       -3.80747231287718
H            2.21789552389410        1.64291114173847       -4.60716499607966
O           -4.13906164916070       -1.05330908418440        1.20529754308726
H           -4.72262281800884       -1.49079136813173        0.57633358691951
H           -4.42942562176825       -1.32737859063606        2.10767595598369
O            3.44190532673055       -2.46097460119503       -2.20335819240788
H            3.43984147041255       -3.38474426436234       -1.88114178737113
H            2.65777241766203       -2.36274234753706       -2.77023073589347
O           -1.37288468365314        2.72972262846061       -2.75109366639329
H           -0.60092016229983        2.22912786526857       -2.40011483748208
H           -0.99464401832626        3.53054332915948       -3.14449042311401
O           -2.47050891449229       -3.33634034719472        3.40318632539235
H           -2.32491084126926       -2.37395011530561        3.34042765899504
H           -1.67629649748014       -3.70573620414574        2.97066938924475
O            4.31219104310695        0.14897778313221       -2.63232555530119
H            4.09312090988353       -0.77492924752702       -2.43130862998670
H            4.18384396619023        0.66086094802576       -1.80677780268992
O           -3.36490555700674        3.11166547391416       -0.88962970395204
H           -2.68329510817553        2.95609667342877       -1.57584033702243
H           -3.29104521961962        2.36304626857472       -0.25838356296746
O            2.31208347619277       -3.75167347510565        1.89723925275414
H            1.36319991711927       -3.95790266410215        1.80250608491513
H            2.33712334251255       -3.12939272029723        2.65815343792206
O            1.16389289359767        5.24187793879063       -1.22925167519061
H            0.60902411227063        4.53760335250984       -0.84355407164685
H            1.40757913187561        5.81905477255454       -0.46635003518682
O           -2.37099657472870        1.73662899363769        3.72613757667581
H           -2.71866705264245        1.69867634997077        2.80578000010236
H           -1.90823852879542        2.60347135510335        3.76725608173161
O            5.09253007969034       -0.48738077084009        1.12340729226410
H            4.33384612795743       -1.05284274821678        0.84484629246238
H            5.88736556739523       -0.89812856169806        0.73052693769457
O            1.26142928635037        3.87436484557147        2.16142779999234
H            0.85680752049531        3.65082948891964        1.29392021702448
H            2.19676980040129        3.58093089791130        2.12433641951934
O            2.37495014050608       -1.97075832628735        3.91236667381036
H            1.53867595427736       -1.92112635197092        4.40886323698084
H            2.58121837794164       -1.06251067571204        3.61959883305202
O            3.76717245369512        2.94339505741008        2.00391637325004
H            3.94680731348648        2.54046528005772        1.12966417843984
H            3.64031268215692        2.18063010853384        2.59909139353764
O            0.20678981845777        0.93272930488435        5.24838521784064
H            0.24463740045110       -0.00737836768667        5.47627980346115
H           -0.69834007701180        1.22101602526564        5.39337157221689
O           -0.05428774949834       -1.82082040337098        5.17285012365215
H           -0.44176274172519       -2.62685826194269        5.51531439325680
H           -0.64729289575601       -1.51015310381616        4.44456318234490
O           -1.24845293906445        4.12993351587716        3.41897322347925
H           -0.30682240699709        4.12715465344554        3.20056637098803
H           -1.70868985715932        4.41291984448432        2.61566551265245
O            4.52925752424884       -3.69995493420043        3.99747258736765
H            4.19282241829103       -4.17094429619090        3.22919375169037
H            3.87890395840850       -3.00254018124565        4.18662315089797
O           -4.10771134865548        0.36988042661451        5.25854408300385
H           -4.81530788417179        0.96075803766850        5.51680522066369
H           -3.47357105259581        0.90424254833780        4.73891491412474
O            4.43125316189114        5.55836767088465        1.40723137763952
H            5.05613634788745        5.94606971207745        2.01988422450554
H            4.28874896464418        4.64238821828615        1.69728608277589
O           -4.07431728741549       -3.99682244312604        1.36421322565551
H           -4.74382697418105       -4.60570000419040        1.67271474833753
H           -3.54537286387169       -3.72995637032391        2.15197269239417
O           -2.29788103235596        4.75723531561481        0.86387186659233
H           -2.87045674410353        4.24532613373152        0.24042943369502
H           -2.31962654731825        5.67221904602967        0.58306788187035
O            6.98288935578068       -1.63665011815252       -0.39443580539801
H            6.86776596646611       -2.54013917249407       -0.69362329386020
H            7.08260711533759       -1.08933480142506       -1.20182151126989
O           -4.85077881700992       -1.71523539147722        3.68161937549526
H           -4.29163538863889       -2.45335137289164        3.94193531681363
H           -4.61048316556346       -0.97620909244244        4.27654930277033
O            1.82864565437828        6.35453654465338        1.07272698971304
H            1.50665590247438        5.64433073799708        1.65526015684281
H            2.79855867524972        6.28260437670144        1.11444064410535
O            0.39503016085015       -3.77663888369086       -1.25912710942196
H            0.39929780523389       -2.81671688199839       -1.09115391029502
H           -0.43672581117932       -4.12649852540706       -0.90658554916716
O           -5.78039339058144        2.20390684287552       -1.74708230385798
H           -4.91473640856430        2.60882333276800       -1.53348540711886
H           -6.07872968444924        1.77219997007599       -0.94483042303963
O            7.00256173946065       -0.10513015759155       -2.61731032361220
H            7.39065215329397        0.77007795358361       -2.60429472345393
H            6.04029182622765        0.01453034105327       -2.76046845015161
O           -1.76670614934896       -3.94855428029965       -5.22404571517373
H           -0.90499466841282       -4.22733040425531       -4.83757978740505
H           -2.44592419357061       -4.41868962466959       -4.73751501566518
O            0.07317980490267        4.91144047114210       -3.66745098950736
H            0.51091262354764        5.14245101103798       -2.82160281728729
H           -0.16699604549086        5.73538252035820       -4.09090131641454
O            2.91956358880674       -4.66574247520229       -0.76116896051840
H            1.97306987172879       -4.53845816149187       -0.95610442703929
H            2.99027969277232       -4.59564464735940        0.19777669549903
O           -5.49069419112028        0.28518176330631       -3.61131299358069
H           -4.60713001261681        0.47388062561693       -3.96871626638434
H           -5.70821006617030        1.05408790162493       -3.04103097916681
O            2.86766796208269        3.32533535599112       -1.94458219072319
H            3.51087424468763        3.00667464228256       -1.30307079035610
H            2.44221483291095        4.13813616800887       -1.60248077798281
O            0.54524878932055       -4.28261192734922       -3.93263484622288
H            0.44036612147430       -4.26443924160528       -2.96212413848863
H            0.94964693217768       -3.43210805774328       -4.14453129832439
O           -2.81428940226739        0.84529443961080       -4.06375452028125
H           -2.22994007168970        1.59697187208590       -3.86095392639546
H           -2.26189385204269        0.07790353814255       -4.29672689327982
O            2.23376835002116        3.37050826535608       -4.60656789001721
H            2.67721682182478        3.43483516734838       -3.74451783783081
H            1.39683746059530        3.84470747292205       -4.48939407926851
