%chk=catecholate_solvated_2_optimized_Oxidized_Structure.chk
#p B3LYP empiricaldispersion=gd3 scrf=(cpcm,solvent=water) scf=(maxcycles=500,xqc,maxconventional=1000) 6-31+G(2df,p)

Oxidized_Structure

-3 2
C           -3.40352008449255       -3.70022003249072       -0.57317010296290
C           -2.76172009349985       -4.22224006664628        0.55146024073480
C           -1.63638005542367       -3.55910012915616        1.09077082081163
C           -1.14435006453773       -2.36758113028542        0.52720947924381
C           -1.81056998381691       -1.82777013636278       -0.64600963626719
C           -2.92447002067046       -2.50941997231547       -1.16501002268595
O           -1.30673002706623       -0.73452001882815       -1.15103998963715
O           -0.10726999327887       -1.70982030372246        0.96469016429791
H           -4.27613999368026       -4.20449000403027       -0.99396999883640
H           -3.12568998080736       -5.14105004068749        1.01661000949193
H           -1.12455001176521       -3.95425000654694        1.96816036764852
H           -3.41524000357234       -2.08574001546305       -2.04093998674497
Fe           0.09705001633562       -0.02306000035400       -0.00345997453298
C            5.17322000465686       -0.59968999951453       -0.60790999801749
C            5.20226999991367        0.06098000225393        0.62024999290018
C            3.98946999795437        0.44766000024238        1.23957999904921
C            2.74245999787828        0.17872999750367        0.64802000001970
C            2.71211000260044       -0.50230999931336       -0.63654999927979
C            3.93149999596010       -0.88037000022370       -1.22707000305252
O            1.53551999910757       -0.71723999889091       -1.15159000723475
O            1.58879000655585        0.49500999945067        1.16398999718660
H            6.10359000222040       -0.90322999935175       -1.09333000305920
H            6.15559000198071        0.28388000020478        1.10496999931064
H            3.99522000071459        0.96504000062490        2.19901999662445
H            3.89273999913524       -1.39563999771930       -2.18689000348920
C           -2.13918999925955        4.54127000109679       -0.53786999532244
C           -2.86180999700096        4.10295000010948        0.57340000403294
C           -2.56819000081902        2.84663000171878        1.15030000442679
C           -1.55920999959779        2.01707999827393        0.63116999915385
C           -0.81048999821392        2.46983000069735       -0.52899999879107
C           -1.11789999970539        3.72786000072017       -1.07838999925774
O            0.12400999956690        1.67429000009974       -0.96959999929977
O           -1.22500000050689        0.85621999759209        1.12527000153543
H           -2.35908999932562        5.51049999865366       -0.99092999887922
H           -3.65524999873260        4.72371000154485        0.99538000147785
H           -3.12374000009007        2.48750000037721        2.01629999978938
H           -0.54482999953419        4.05617000019810       -1.94529999765938
O            2.91666946196164        0.79172743897348        9.99190390017413
H            3.38646543536929        0.87047916120020        9.15605850055699
H            2.04389180995136        0.43852185084237        9.79370730208736
O           -3.72873343539515       -1.36923102365747        5.51483607869606
H           -3.99180818775343       -2.18492015019335        5.07841754561396
H           -3.09350836658212       -0.93936291798524        4.93317334909952
O            0.29279831164931        2.46867661309365        5.99445342829041
H            0.61804959948904        1.89265453513120        5.29551105154749
H           -0.51679747844119        2.86501297357739        5.66020451398108
O            2.08199251068979       -2.58675747273581        6.04675098059956
H            2.68237120489672       -2.21808643927120        5.39156990351875
H            1.22338249450157       -2.64440858373708        5.61593060668111
O           -6.64723562462299        3.32511091652127        5.79497039316163
H           -6.55715527420135        2.75179651463332        5.02727633303096
H           -6.34526954155073        4.20016418378055        5.53223291817489
O            4.66535579819483        5.21486973009259        5.32474024744184
H            4.26836060616192        4.78847206577974        4.56027888424275
H            3.95868529261544        5.37530978783980        5.95875936935568
O            1.60346531118976       -7.69810908561205        3.76634519588440
H            2.05370981225772       -6.84796705609402        3.73761997136151
H            1.02616393875874       -7.73652144063231        2.99795994988769
O            0.50353480066560        5.06698503205133        1.30350732284050
H           -0.23366870084740        4.89036494716848        0.70047470042472
H            0.92784224724570        4.21102992457175        1.42532135587590
O            2.07884677222842       -3.11506569374336        0.89849346226654
H            1.22424026642589       -2.59095877436986        1.01899393042179
H            2.55696289346127       -2.52214241813868        0.30653813421991
O           -7.16658913296759        0.05256856263199        1.05269431510449
H           -6.56764364961098       -0.48954184351139        1.57585971291234
H           -6.68823279727903        0.29745262049642        0.25606673899675
O            5.41237461304773        5.68218177699238       -0.76765320149150
H            5.31838830959169        4.73335389731772       -0.64532520176371
H            4.56649236996715        5.99988859623335       -1.09702009904055
O            4.16799801138132       -7.94895971663318       -0.56554360266962
H            4.99459192294258       -7.83909086559298       -0.08652760120748
H            3.78127835445280       -7.07371677955753       -0.66091045358186
O           -2.93066568403708        0.25872478945670       -3.12004619453130
H           -1.85196362858914       -0.39932212015588       -1.90854622123509
H           -2.85552612629433        1.17556665117931       -2.83996560799486
O            1.61203163663461        2.79256009864986       -3.01352190705497
H            0.62415335788635        2.06214293087376       -1.72509507755125
H            2.15345000627769        1.99689374381075       -2.99957478149559
O           -1.59508699870737       -6.14822147304724       -1.62081414534146
H           -0.66721900641002       -5.97847398917029       -1.43094410831280
H           -2.07616508496369       -5.39080666650327       -1.25037591827614
O            1.14295072515846        8.77946308658114       -3.16216837453388
H            1.25038733256128        8.00741249258862       -3.72452227123492
H            0.82196347150118        8.46289701248209       -2.31261266855833
O            5.29083022767353       -5.93296349313862       -5.42969577716132
H            5.00102355080887       -5.26483426245499       -4.80184315549311
H            4.57234494521544       -6.05729885775461       -6.05862299860219
O           -7.86467849189772        0.47571488465958       -5.25961527318607
H           -7.51405565684505        0.13022180559709       -4.43356920641706
H           -7.11022679780458        0.74818292433416       -5.79016100014533
O            2.19188903033577        3.72910225254544       -5.22127282720402
H            3.11900448288156        3.95200223945211       -5.09955391291878
H            1.89600791937975        3.31224163348670       -4.22862922761130
O            0.51129770392649       -3.75373035894379       -5.47900792427284
H            0.76359232224093       -3.16271557453131       -4.76459002559554
H           -0.44922595786145       -3.73600182695317       -5.51975675136800
O           -2.86665001508815        5.72312345105380       -6.19122331964214
H           -3.35898894277317        5.09696186212052       -5.65275840157686
H           -1.93753635101422        5.49084496109290       -6.10464918852240
O            3.25737480787365       -0.44701158604795       -8.02827684648422
H            3.60473795692444       -0.34122968393816       -7.13819412052369
H            2.34710599727923       -0.13683671332329       -8.00821833078468
O           -2.49242976267470        0.48115580035686       -5.54437791626343
H           -1.57158848757946        0.75108104776135       -5.54284092134517
H           -2.71202737604064        0.35247574755147       -4.46361487945836
O            3.91887506437600        1.26460215625184       12.63791942584664
H            4.22467729334929        0.38332026254753       12.87543112036526
H            3.56383387203210        1.18521767448843       11.73879009398491
O           -1.83258038008397       -2.34407532182926       10.24341492936315
H           -1.42330805359499       -2.64428226670894        9.42518332216576
H           -2.53052121450019       -1.72992505906061        9.99523175625211
O            1.68157952812088        5.93849743204669       10.11026421177958
H            2.23426877363268        5.44306860463623       10.72347906730065
H            1.13240998170297        5.29674208056731        9.64914786188450
O            5.07459231072324       -3.71143704289649       10.56009226014732
H            5.63101322356186       -3.09804917261395       10.06954192592339
H            4.24507013997612       -3.78216560992102       10.07712417413683
O           -6.39122457997345        2.37094316183228        8.50006583121270
H           -5.58044049430942        1.86362374002104        8.39348729507311
H           -6.59054740495375        2.73973624080214        7.62546429260081
O            7.43073342628505        5.84937603975283        5.71906874433261
H            7.70030945690853        5.14269507180825        6.31427991453110
H            6.49278175198886        5.69213882272591        5.53073230208850
O            1.20371619189556       -9.26009005256250        6.13035515626176
H            1.37781718770713       -8.80497516463019        5.29151015383539
H            0.91826606745164       -8.57722105262763        6.74505418987693
O           -2.83081139150125        7.46241832062055        5.48564658268533
H           -2.49435852451713        6.93898476341464        4.75226710954930
H           -2.09610830176616        7.99018133208043        5.81472225020148
O            7.12187537589194       -0.30304383768964        6.45108224520569
H            7.24893282527229       -1.19747649272975        6.11910573559726
H            6.67945357127323        0.19304499773796        5.75613547601211
O           -9.34480895970912       -1.46971270207197        6.21054781922872
H           -8.40780922902449       -1.37118469360715        6.40648134362985
H           -9.66204412728512       -0.60745057313558        5.92362916729054
O            4.77262628643304        9.87808247510064        2.90853374156721
H            5.08541893267840        9.72977422980339        3.80693108834668
H            4.63178744975369        9.01223451230154        2.51401151217308
O            4.56319676902831      -12.53154334760629        2.94827497474223
H            4.56685300360946      -11.84457413569501        2.27439633018253
H            4.00951897331391      -12.21314882583388        3.66849284330556
O           -8.85277413742753        5.33027419152793        1.42293581463117
H           -8.27804051584921        4.62994665297068        1.10019614945514
H           -8.38420956901545        6.16142273166553        1.29819351262509
O           10.18180864203023        3.38898538105437        2.05439710986390
H           10.51483387495159        4.07400321349508        2.64395050668931
H            9.25232783689544        3.58126169050702        1.90026588104007
O           -5.53214240588499       -9.67118767352788       -0.52238323898066
H           -4.65794075285999      -10.03213994981114       -0.34267388833119
H           -5.40410930286410       -8.76657253590007       -0.82297176354656
O           -0.28694495545399       10.64012468560604        2.19043111752779
H            0.01562595649356        9.73741263257925        2.05344632604338
H            0.41485069916070       11.22166413244679        1.88106176528775
O            6.90130888159967       -4.62961263490478        2.89509882635833
H            7.41090384193734       -4.14633548261796        2.23776023747075
H            5.99159057600646       -4.32565524435485        2.81905172260697
O          -12.43581609328489        1.01685394768139        2.04052602025930
H          -11.78875198451163        0.33014247980056        1.85182779966212
H          -11.96607710686854        1.85654264125012        2.01799703803390
O            9.68214832916481        8.60374674179357        1.42028501451389
H            9.34853042128740        8.55407732733324        2.32197363156053
H            8.93848700746313        8.42494525098374        0.83673005754085
O           -0.03526051298571      -11.38209717982500       -0.82209519701979
H            0.69849487246700      -11.14252244795905       -0.24675425646208
H           -0.17648820789754      -10.64116006274444       -1.41968799456525
O           -5.30956488016183        9.69252307811369        1.20214243875552
H           -4.56886051547930        9.29737891525659        0.73346429344249
H           -4.97583554723807        9.98182682924722        2.05801918312397
O           11.29135602200486       -1.58796599706422        0.78494746173836
H           11.74321239125011       -0.96309876755285        1.36194825682689
H           10.51482335497488       -1.13779568422210        0.44046439335778
O           -5.30705824403239       -4.31500639366709       -6.26265644369823
H           -4.99618741967998       -4.77999971052866       -5.48013492552733
H           -4.99276764130586       -3.40890548580553       -6.19209835827451
O            2.94254184633456       13.51932143315527       -4.85474129532282
H            3.23361339385122       12.80533410554439       -4.27938097109231
H            2.18291220465869       13.18940685075524       -5.34516230736568
O            4.63568656962599      -11.50860168890311       -4.31037092570388
H            5.00456190468635      -10.62337784801976       -4.38651630348198
H            3.80145528073196      -11.42388550489968       -3.83781117537551
O          -11.78986046741760        3.86938810811826       -5.79058665155091
H          -11.84453913767907        2.91269009025651       -5.69928017434510
H          -10.91018829690228        4.12705378188627       -5.49858348649521
O           10.53609767823721        5.28178753966663       -3.04643294106885
H           10.88402046699320        5.47704494870175       -2.16979594303338
H            9.61004229188012        5.04848329402799       -2.93461299814083
O           -0.11220503881184       -8.87723319226125       -5.86729244244392
H            0.55373942667465       -8.35711677621250       -5.40704120355723
H           -0.96979433676010       -8.55182479836460       -5.57659578779045
O           -0.90398549405841       10.58456815065223       -7.82855821766847
H           -0.37667706686393        9.94971604502410       -8.32355599048182
H           -1.28024931098799       10.11226383350894       -7.07974663962655
O            7.30576855428355       -3.74140205012924      -10.17113676274235
H            7.27349817947998       -4.43152438349999       -9.50092108525355
H            6.50794320300291       -3.21364775623404      -10.06788959323634
O           -9.68911749398546       -3.09144694025565       -9.24822679710109
H           -8.93854694207189       -3.66881240318592       -9.07659728722760
H           -9.62457911826918       -2.35919538698448       -8.62735109834678
O            1.95598980301703        6.31301544938725      -10.18068786858131
H            2.06248709992735        5.65802968048832      -10.87849058583231
H            1.89524836860659        5.83206495158768       -9.35053139489756
O            1.96735203341968       -5.60581211046483      -10.10228526321949
H            2.03273150632334       -4.70208706033566       -9.77856053688568
H            1.39718936613875       -6.08259835254839       -9.49076612993970
O           -1.89877950598275        2.95312859887139      -10.63339526681225
H           -2.00560095792852        2.51717006355953       -9.78345017385159
H           -2.20855730104047        3.85843395608095      -10.52597076073187
O            2.85737356709955        1.53792337368543      -13.13842598939242
H            3.39554210933610        1.21676418092895      -12.40836935814862
H            1.93714062329175        1.41334272722441      -12.88580035460813


