%chk=catecholate_solvated_1_optimized_Reduced_Structure.chk
#p B3LYP empiricaldispersion=gd3 scrf=(cpcm,solvent=water) scf=(maxcycles=500,xqc,maxconventional=1000) 6-31+G(2df,p)

Reduced_Structure

-4 1
C           -3.40351999930491       -3.70022000091264       -0.57317000034771
C           -2.76171999923855       -4.22223999983168        0.55146000069325
C           -1.63638000098685       -3.55909999975940        1.09077000003433
C           -1.14434999968168       -2.36758000071934        0.52721000382995
C           -1.81056999929408       -1.82776999992064       -0.64600999761751
C           -2.92447000004944       -2.50941999951013       -1.16500999906488
O           -1.30673000068355       -0.73452000012597       -1.15103999913149
O           -0.10726999953704       -1.70982000003029        0.96468999976270
H           -4.27614000018469       -4.20448999996068       -0.99397000062939
H           -3.12568999999959       -5.14104999941635        1.01660999942319
H           -1.12454999943632       -3.95424999933487        1.96816000072573
H           -3.41524000068958       -2.08574000020460       -2.04093999726745
Fe           0.09705000043210       -0.02306000002129       -0.00345999987706
C            5.17321999914379       -0.59969000047470       -0.60791000083835
C            5.20227000140180        0.06098000000732        0.62024999853741
C            3.98946999973122        0.44765999829102        1.23957999886835
C            2.74246000133183        0.17872999978346        0.64801999786842
C            2.71210999989955       -0.50231000022232       -0.63654999933704
C            3.93149999980459       -0.88037000192714       -1.22707000007760
O            1.53551999953068       -0.71724000005980       -1.15159000016178
O            1.58879000104087        0.49501000045445        1.16399000047305
H            6.10358999988847       -0.90322999997579       -1.09333000078042
H            6.15559000045968        0.28388000003054        1.10496999921943
H            3.99521999999022        0.96504000048261        2.19901999824075
H            3.89274000001296       -1.39564000059426       -2.18689000101899
C           -2.13919000060814        4.54126999961179       -0.53786999940620
C           -2.86181000049992        4.10294999965496        0.57340000129014
C           -2.56818999998521        2.84663000003111        1.15030000052583
C           -1.55921000037046        2.01708000013167        0.63117000031851
C           -0.81049000003048        2.46983000035340       -0.52900000033285
C           -1.11789999978506        3.72785999962718       -1.07838999910567
O            0.12401000016761        1.67428999998614       -0.96960000011079
O           -1.22499999986883        0.85622000034198        1.12526999983768
H           -2.35908999998422        5.51049999991475       -0.99093000012138
H           -3.65525000001174        4.72371000024730        0.99537999977618
H           -3.12374000021908        2.48750000020482        2.01629999982982
H           -0.54482999976403        4.05616999991541       -1.94530000067173
O            2.34238573529642        0.33002850541796       10.21960466941471
H            2.81287136056729        0.86758436591379        9.57523492740377
H            1.62599992566258       -0.10230852510932        9.74468010969864
O           -3.12580752880736       -1.36544483591079        5.87505761863454
H           -2.68595405716587       -2.21854303413558        5.93939381636715
H           -2.80842258829949       -0.96589536717897        5.06640668776719
O            0.49167523012705        2.59342573010029        5.93196968778910
H            0.75051705440356        2.14463719271654        5.12025061334339
H           -0.43094158069148        2.91197835824542        5.75319502343434
O            2.39655557574456       -2.47546883988602        5.71721254400363
H            3.10519290913529       -1.82809757648493        5.66172138863899
H            1.86103667757913       -2.35295228515766        4.92683327162892
O           -6.85568791131346        2.67953083196316        5.98779813782286
H           -6.54699724866293        1.78050836775185        6.14326260336905
H           -6.52229435150775        2.93874141611225        5.12381063198384
O            5.67845226565866        4.66496328430307        5.74320810613368
H            5.80381188633919        4.27722359794235        4.86762287899798
H            4.73953754368394        4.61446567876552        5.94222903359079
O            0.08239725261336       -7.96635552244192        5.06292943413460
H            0.84857724304073       -7.38748934587277        4.97070943502118
H           -0.59100504287257       -7.64436737528919        4.43963875100717
O           -0.63604266281535        6.20028922118529        1.65268026015551
H           -1.10288021118124        5.61409587996604        1.03421472299417
H           -0.04147771757098        5.62998641218315        2.15073650795233
O            5.86854914526904       -2.96074709124174        1.26054242534278
H            5.05766501425998       -3.22399805826500        1.76955269128993
H            5.61182005609387       -2.12845458130171        0.82338856191127
O           -7.11620984853776       -0.33247378710706        1.63305197338204
H           -6.39952510767562       -0.78349896393324        2.09326240049074
H           -6.74719863375775       -0.01216320388750        0.80415278761230
O            4.30512588020584        6.09857984534895        0.07790690429372
H            4.18023866886541        5.14909899318939        0.16804974620567
H            3.61455070781961        6.40600869500624       -0.47752445891422
O            2.61370171203830       -7.09684292711311       -0.60390322379076
H            2.29141080990576       -6.40531411605873       -0.02098498294520
H            2.70707554468152       -6.70118128216280       -1.47106609310488
O           -2.80934360801462        0.33522296308495       -3.20763955838197
H           -1.83625194519177       -0.39651534302674       -1.91444897618720
H           -2.49941935255079        1.22510976689768       -3.03609098613070
O            1.37567045968013        3.04600846865328       -3.11899209602131
H            0.60223293588120        2.09621008110547       -1.74231293710765
H            1.99221240935901        2.30565478439661       -3.21197977803132
O           -2.84210334983452       -6.72868783199772       -1.73768069005365
H           -1.91103547109521       -7.01126454349692       -1.76853372469525
H           -2.82554871782566       -5.80594994457918       -1.44726727752730
O            0.45794559894008        9.83356170093009       -2.48823684722313
H            0.70005738150849        9.08934035297891       -3.04722173199460
H            0.13919764998095        9.46630971069760       -1.65785536247676
O            6.89515981892665       -5.38658747002312       -3.71461530389505
H            6.89773138137035       -5.14318916665239       -2.78347068205692
H            6.12749975889337       -4.96331878818483       -4.10988021788272
O           -7.57627694763142        0.33892803402987       -5.77767340706014
H           -7.07765940305588       -0.44926728454462       -5.53880269526541
H           -7.01886068480229        1.09000061765668       -5.55666802039760
O            2.49218839522949        4.91409583046730       -4.85555522867591
H            3.41823102975785        4.71265380513459       -4.69204293470688
H            1.98587967790646        4.29828870866100       -4.28047399758154
O            0.44054582341015       -4.40215026508959       -5.13798768506212
H            0.72434785436310       -3.76424869693060       -4.47604389951607
H           -0.51195409141253       -4.30028973166360       -5.21910491143530
O           -3.72620926096248        5.24055659400438       -6.38924676075410
H           -3.68946477446311        4.38267228189484       -6.80864220809370
H           -3.22724343616737        5.15733597508270       -5.57889880722697
O            4.20886134237530        0.35546336895881       -7.43334739812953
H            4.45149395706930        0.09301947963096       -6.52357942652468
H            3.31876788579502        0.69604307260886       -7.38962371783934
O           -2.34799554809802        0.12031786881404       -5.62288088874530
H           -1.39069965308329        0.21566609642494       -5.63956630264020
H           -2.58609853717224        0.19848622305916       -4.52862903046848


