%chk=catecholate_solvated_2_Reduced_Structure.chk
#p B3LYP empiricaldispersion=gd3 scrf=(cpcm,solvent=water) scf=(maxcycles=500,xqc,maxconventional=1000) 6-31+G(2df,p)

Reduced_Structure

-4 1
C           -3.40351999930491       -3.70022000091264       -0.57317000034771
C           -2.76171999923855       -4.22223999983168        0.55146000069325
C           -1.63638000098685       -3.55909999975940        1.09077000003433
C           -1.14434999968168       -2.36758000071934        0.52721000382995
C           -1.81056999929408       -1.82776999992064       -0.64600999761751
C           -2.92447000004944       -2.50941999951013       -1.16500999906488
O           -1.30673000068355       -0.73452000012597       -1.15103999913149
O           -0.10726999953704       -1.70982000003029        0.96468999976270
H           -4.27614000018469       -4.20448999996068       -0.99397000062939
H           -3.12568999999959       -5.14104999941635        1.01660999942319
H           -1.12454999943632       -3.95424999933487        1.96816000072573
H           -3.41524000068958       -2.08574000020460       -2.04093999726745
Fe           0.09705000043210       -0.02306000002129       -0.00345999987706
C            5.17321999914379       -0.59969000047470       -0.60791000083835
C            5.20227000140180        0.06098000000732        0.62024999853741
C            3.98946999973122        0.44765999829102        1.23957999886835
C            2.74246000133183        0.17872999978346        0.64801999786842
C            2.71210999989955       -0.50231000022232       -0.63654999933704
C            3.93149999980459       -0.88037000192714       -1.22707000007760
O            1.53551999953068       -0.71724000005980       -1.15159000016178
O            1.58879000104087        0.49501000045445        1.16399000047305
H            6.10358999988847       -0.90322999997579       -1.09333000078042
H            6.15559000045968        0.28388000003054        1.10496999921943
H            3.99521999999022        0.96504000048261        2.19901999824075
H            3.89274000001296       -1.39564000059426       -2.18689000101899
C           -2.13919000060814        4.54126999961179       -0.53786999940620
C           -2.86181000049992        4.10294999965496        0.57340000129014
C           -2.56818999998521        2.84663000003111        1.15030000052583
C           -1.55921000037046        2.01708000013167        0.63117000031851
C           -0.81049000003048        2.46983000035340       -0.52900000033285
C           -1.11789999978506        3.72785999962718       -1.07838999910567
O            0.12401000016761        1.67428999998614       -0.96960000011079
O           -1.22499999986883        0.85622000034198        1.12526999983768
H           -2.35908999998422        5.51049999991475       -0.99093000012138
H           -3.65525000001174        4.72371000024730        0.99537999977618
H           -3.12374000021908        2.48750000020482        2.01629999982982
H           -0.54482999976403        4.05616999991541       -1.94530000067173
O            2.34238573529642        0.33002850541796       10.21960466941471
H            2.81287136056729        0.86758436591379        9.57523492740377
H            1.62599992566258       -0.10230852510932        9.74468010969864
O           -3.12580752880736       -1.36544483591079        5.87505761863454
H           -2.68595405716587       -2.21854303413558        5.93939381636715
H           -2.80842258829949       -0.96589536717897        5.06640668776719
O            0.49167523012705        2.59342573010029        5.93196968778910
H            0.75051705440356        2.14463719271654        5.12025061334339
H           -0.43094158069148        2.91197835824542        5.75319502343434
O            2.39655557574456       -2.47546883988602        5.71721254400363
H            3.10519290913529       -1.82809757648493        5.66172138863899
H            1.86103667757913       -2.35295228515766        4.92683327162892
O           -6.85568791131346        2.67953083196316        5.98779813782286
H           -6.54699724866293        1.78050836775185        6.14326260336905
H           -6.52229435150775        2.93874141611225        5.12381063198384
O            5.67845226565866        4.66496328430307        5.74320810613368
H            5.80381188633919        4.27722359794235        4.86762287899798
H            4.73953754368394        4.61446567876552        5.94222903359079
O            0.08239725261336       -7.96635552244192        5.06292943413460
H            0.84857724304073       -7.38748934587277        4.97070943502118
H           -0.59100504287257       -7.64436737528919        4.43963875100717
O           -0.63604266281535        6.20028922118529        1.65268026015551
H           -1.10288021118124        5.61409587996604        1.03421472299417
H           -0.04147771757098        5.62998641218315        2.15073650795233
O            5.86854914526904       -2.96074709124174        1.26054242534278
H            5.05766501425998       -3.22399805826500        1.76955269128993
H            5.61182005609387       -2.12845458130171        0.82338856191127
O           -7.11620984853776       -0.33247378710706        1.63305197338204
H           -6.39952510767562       -0.78349896393324        2.09326240049074
H           -6.74719863375775       -0.01216320388750        0.80415278761230
O            4.30512588020584        6.09857984534895        0.07790690429372
H            4.18023866886541        5.14909899318939        0.16804974620567
H            3.61455070781961        6.40600869500624       -0.47752445891422
O            2.61370171203830       -7.09684292711311       -0.60390322379076
H            2.29141080990576       -6.40531411605873       -0.02098498294520
H            2.70707554468152       -6.70118128216280       -1.47106609310488
O           -2.80934360801462        0.33522296308495       -3.20763955838197
H           -1.83625194519177       -0.39651534302674       -1.91444897618720
H           -2.49941935255079        1.22510976689768       -3.03609098613070
O            1.37567045968013        3.04600846865328       -3.11899209602131
H            0.60223293588120        2.09621008110547       -1.74231293710765
H            1.99221240935901        2.30565478439661       -3.21197977803132
O           -2.84210334983452       -6.72868783199772       -1.73768069005365
H           -1.91103547109521       -7.01126454349692       -1.76853372469525
H           -2.82554871782566       -5.80594994457918       -1.44726727752730
O            0.45794559894008        9.83356170093009       -2.48823684722313
H            0.70005738150849        9.08934035297891       -3.04722173199460
H            0.13919764998095        9.46630971069760       -1.65785536247676
O            6.89515981892665       -5.38658747002312       -3.71461530389505
H            6.89773138137035       -5.14318916665239       -2.78347068205692
H            6.12749975889337       -4.96331878818483       -4.10988021788272
O           -7.57627694763142        0.33892803402987       -5.77767340706014
H           -7.07765940305588       -0.44926728454462       -5.53880269526541
H           -7.01886068480229        1.09000061765668       -5.55666802039760
O            2.49218839522949        4.91409583046730       -4.85555522867591
H            3.41823102975785        4.71265380513459       -4.69204293470688
H            1.98587967790646        4.29828870866100       -4.28047399758154
O            0.44054582341015       -4.40215026508959       -5.13798768506212
H            0.72434785436310       -3.76424869693060       -4.47604389951607
H           -0.51195409141253       -4.30028973166360       -5.21910491143530
O           -3.72620926096248        5.24055659400438       -6.38924676075410
H           -3.68946477446311        4.38267228189484       -6.80864220809370
H           -3.22724343616737        5.15733597508270       -5.57889880722697
O            4.20886134237530        0.35546336895881       -7.43334739812953
H            4.45149395706930        0.09301947963096       -6.52357942652468
H            3.31876788579502        0.69604307260886       -7.38962371783934
O           -2.34799554809802        0.12031786881404       -5.62288088874530
H           -1.39069965308329        0.21566609642494       -5.63956630264020
H           -2.58609853717224        0.19848622305916       -4.52862903046848
O 2.917644913487947 0.20959053181721357 11.62637609146807
H 3.817644913487947 0.20959053181721357 11.62637609146807
H 2.624633574476506 1.0605572498565987 11.62637609146807
O -3.5062865077944028 -3.0696296203157094 10.941545065059087
H -2.606286507794403 -3.0696296203157094 10.941545065059087
H -3.799297846805844 -2.218662902276324 10.941545065059087
O 0.6130055924153379 6.358937882303474 10.256714038650104
H 1.5130055924153378 6.358937882303474 10.256714038650104
H 0.3199942534038969 7.209904600342859 10.256714038650104
O 4.448445042018472 -5.4969748473761255 9.571883012241122
H 5.348445042018472 -5.4969748473761255 9.571883012241122
H 4.155433703007031 -4.646008129336741 9.571883012241122
O -7.827079411126156 1.6070613690014168 8.887051985832139
H -6.927079411126155 1.6070613690014168 8.887051985832139
H -8.120090750137596 2.458028087040802 8.887051985832139
O 7.433573394903963 4.891576150426556 8.202220959423157
H 8.333573394903963 4.891576150426556 8.202220959423157
H 7.140562055892522 5.742542868465941 8.202220959423157
O -2.3464438430056265 -8.791840262290659 7.517389933014172
H -1.4464438430056266 -8.791840262290659 7.517389933014172
H -2.6394551820170675 -7.940873544251274 7.517389933014172
O -4.459755615221608 8.93776726633935 6.83255890660519
H -3.5597556152216083 8.93776726633935 6.83255890660519
H -4.752766954233049 9.788733984378736 6.83255890660519
O 9.727832700968847 -3.316219085686016 6.147727880196206
H 10.627832700968847 -3.316219085686016 6.147727880196206
H 9.434821361957406 -2.465252367646631 6.147727880196206
O -9.779245347378145 -3.857408537027304 5.462896853787225
H -8.879245347378145 -3.857408537027304 5.462896853787225
H -10.072256686389586 -3.006441818987919 5.462896853787225
O 4.728858832649257 10.15818942075516 4.778065827378243
H 5.628858832649257 10.15818942075516 4.778065827378243
H 4.435847493637816 11.009156138794546 4.778065827378243
O 3.4427048483364664 -10.532513670248537 4.09323480096926
H 4.342704848336466 -10.532513670248537 4.09323480096926
H 3.1496935093250253 -9.681546952209152 4.09323480096926
O -9.863592820133146 5.968239284223329 3.408403774560276
H -8.963592820133146 5.968239284223329 3.408403774560276
H -10.156604159144587 6.819206002262714 3.408403774560276
O 11.468475703738163 2.714781779684671 2.7235727481512946
H 12.368475703738163 2.714781779684671 2.7235727481512946
H 11.175464364726722 3.565748497724056 2.7235727481512946
O -6.71730012422903 -9.449379254241444 2.0387417217423107
H -5.817300124229029 -9.449379254241444 2.0387417217423107
H -7.010311463240471 -8.598412536202058 2.0387417217423107
O -1.4567227141564725 12.016886605056355 1.3539106953333298
H -0.5567227141564725 12.016886605056355 1.3539106953333298
H -1.7497340531679135 12.86785332309574 1.3539106953333298
O 9.222322962354642 -7.50119207414384 0.6690796689243466
H 10.122322962354643 -7.50119207414384 0.6690796689243466
H 8.929311623343201 -6.650225356104455 0.6690796689243466
O -11.900980769249932 -0.28558473134816054 -0.015751357484635395
H -11.000980769249932 -0.28558473134816054 -0.015751357484635395
H -12.193992108261373 0.5653819866912246 -0.015751357484635395
O 8.554443886410391 8.649433568556761 -0.7005823838936174
H 9.454443886410392 8.649433568556761 -0.7005823838936174
H 8.26143254739895 9.500400286596147 -0.7005823838936174
O -0.4766282069744789 -11.683720361233496 -1.3854134103026008
H 0.42337179302552114 -11.683720361233496 -1.3854134103026008
H -0.7696395459859199 -10.83275364319411 -1.3854134103026008
O -7.491608380325485 9.274912652322332 -2.070244436711584
H -6.591608380325485 9.274912652322332 -2.070244436711584
H -7.784619719336926 10.125879370361718 -2.070244436711584
O 11.636410291082052 -1.3462058307116855 -2.755075463120568
H 12.536410291082053 -1.3462058307116855 -2.755075463120568
H 11.343398952070611 -0.49523911267230036 -2.755075463120568
O -9.354201608068594 -6.3498390447088155 -3.4399064895295495
H -8.454201608068594 -6.3498390447088155 -3.4399064895295495
H -9.647212947080035 -5.498872326669431 -3.4399064895295495
O 2.5442779417262518 11.193210579274629 -4.1247375159385316
H 3.4442779417262517 11.193210579274629 -4.1247375159385316
H 2.2512666027148107 12.044177297314015 -4.1247375159385316
O 5.534370257990057 -9.320656301731777 -4.809568542347512
H 6.434370257990057 -9.320656301731777 -4.809568542347512
H 5.241358918978616 -8.469689583692391 -4.809568542347512
O -10.081397582513112 3.4492249727450557 -5.494399568756496
H -9.181397582513112 3.4492249727450557 -5.494399568756496
H -10.374408921524553 4.300191690784441 -5.494399568756496
O 9.403760304965456 4.520486895235659 -6.179230595165478
H 10.303760304965456 4.520486895235659 -6.179230595165478
H 9.110748965954015 5.371453613275044 -6.179230595165478
O -3.7236355291958163 -8.863059808032924 -6.8640616215744625
H -2.8236355291958164 -8.863059808032924 -6.8640616215744625
H -4.016646868207257 -8.012093089993538 -6.8640616215744625
O -3.08138586183641 8.980498837333071 -7.548892647983445
H -2.18138586183641 8.980498837333071 -7.548892647983445
H -3.374397200847851 9.831465555372457 -7.548892647983445
O 7.795011666632696 -3.848709973047165 -8.233723674392428
H 8.695011666632697 -3.848709973047165 -8.233723674392428
H 7.502000327621255 -2.99774325500778 -8.233723674392428
O -7.6847225484500665 -1.83540670577835 -8.91855470080141
H -6.784722548450066 -1.83540670577835 -8.91855470080141
H -7.977733887461508 -0.9844399877389649 -8.91855470080141
O 3.9623439070148345 6.257903750724522 -9.603385727210393
H 4.862343907014835 6.257903750724522 -9.603385727210393
H 3.6693325680033935 7.108870468763907 -9.603385727210393
O 1.118884350476723 -5.874202421564039 -10.288216753619375
H 2.018884350476723 -5.874202421564039 -10.288216753619375
H 0.8258730114652819 -5.023235703524654 -10.288216753619375
O -3.7648136323867774 3.1820631758260527 -10.973047780028358
H -2.8648136323867774 3.1820631758260527 -10.973047780028358
H -4.057824971398218 4.033029893865438 -10.973047780028358
O 2.9079334897918954 0.44443179907912733 -11.657878806437342
H 3.8079334897918953 0.44443179907912733 -11.657878806437342
H 2.6149221507804543 1.2953985171185125 -11.657878806437342


